Program Version,EnergyPlus, Version 8.7.0-df3c0af5a5, YMD=2017.09.06 14:52
! <Version>, Version ID
 Version, 8.7
! <Timesteps per Hour>, #TimeSteps, Minutes per TimeStep {minutes}
 Timesteps per Hour,  6, 10
! <System Convergence Limits>, Minimum System TimeStep {minutes}, Max HVAC Iterations, Minimum Plant Iterations, Maximum Plant Iterations
 System Convergence Limits, 1, 20, 2, 8
! <Simulation Control>, Do Zone Sizing, Do System Sizing, Do Plant Sizing, Do Design Days, Do Weather Simulation, Do HVAC Sizing Simulation
 Simulation Control, Yes, Yes, No, Yes, Yes, No
! <Output Reporting Tolerances>, Tolerance for Time Heating Setpoint Not Met, Tolerance for Zone Cooling Setpoint Not Met Time
 Output Reporting Tolerances, 0.200, 0.200, 
! <Site:GroundTemperature:BuildingSurface>,Jan{C},Feb{C},Mar{C},Apr{C},May{C},Jun{C},Jul{C},Aug{C},Sep{C},Oct{C},Nov{C},Dec{C}
 Site:GroundTemperature:BuildingSurface,  18.00,  18.00,  18.00,  18.00,  18.00,  18.00,  18.00,  18.00,  18.00,  18.00,  18.00,  18.00
! <Site:GroundTemperature:FCfactorMethod>,Jan{C},Feb{C},Mar{C},Apr{C},May{C},Jun{C},Jul{C},Aug{C},Sep{C},Oct{C},Nov{C},Dec{C}
 Site:GroundTemperature:FCfactorMethod,  10.94,  10.63,  11.18,  12.06,  14.33,  16.09,  17.28,  17.64,  17.02,  15.66,  13.83,  12.14
! <Site:GroundTemperature:Shallow>,Jan{C},Feb{C},Mar{C},Apr{C},May{C},Jun{C},Jul{C},Aug{C},Sep{C},Oct{C},Nov{C},Dec{C}
 Site:GroundTemperature:Shallow,  13.00,  13.00,  13.00,  13.00,  13.00,  13.00,  13.00,  13.00,  13.00,  13.00,  13.00,  13.00
! <Site:GroundTemperature:Deep>,Jan{C},Feb{C},Mar{C},Apr{C},May{C},Jun{C},Jul{C},Aug{C},Sep{C},Oct{C},Nov{C},Dec{C}
 Site:GroundTemperature:Deep,  16.00,  16.00,  16.00,  16.00,  16.00,  16.00,  16.00,  16.00,  16.00,  16.00,  16.00,  16.00
! <Site:GroundReflectance>,Jan{dimensionless},Feb{dimensionless},Mar{dimensionless},Apr{dimensionless},May{dimensionless},Jun{dimensionless},Jul{dimensionless},Aug{dimensionless},Sep{dimensionless},Oct{dimensionless},Nov{dimensionless},Dec{dimensionless}
 Site:GroundReflectance,  0.20,  0.20,  0.20,  0.20,  0.20,  0.20,  0.20,  0.20,  0.20,  0.20,  0.20,  0.20
! <Site:GroundReflectance:SnowModifier>, Normal, Daylighting {dimensionless}
 Site:GroundReflectance:SnowModifier,   1.000,   1.000
! <Site:GroundReflectance:Snow>,Jan{dimensionless},Feb{dimensionless},Mar{dimensionless},Apr{dimensionless},May{dimensionless},Jun{dimensionless},Jul{dimensionless},Aug{dimensionless},Sep{dimensionless},Oct{dimensionless},Nov{dimensionless},Dec{dimensionless}
 Site:GroundReflectance:Snow,  0.20,  0.20,  0.20,  0.20,  0.20,  0.20,  0.20,  0.20,  0.20,  0.20,  0.20,  0.20
! <Site:GroundReflectance:Snow:Daylighting>,Jan{dimensionless},Feb{dimensionless},Mar{dimensionless},Apr{dimensionless},May{dimensionless},Jun{dimensionless},Jul{dimensionless},Aug{dimensionless},Sep{dimensionless},Oct{dimensionless},Nov{dimensionless},Dec{dimensionless}
 Site:GroundReflectance:Snow:Daylighting,  0.20,  0.20,  0.20,  0.20,  0.20,  0.20,  0.20,  0.20,  0.20,  0.20,  0.20,  0.20
! <Environment:Weather Station>,Wind Sensor Height Above Ground {m},Wind Speed Profile Exponent {},Wind Speed Profile Boundary Layer Thickness {m},Air Temperature Sensor Height Above Ground {m},Wind Speed Modifier Coefficient-Internal,Temperature Modifier Coefficient-Internal
Environment:Weather Station,10.000,0.140,270.000,1.500,1.586,9.750E-003
! <Site:Location>, Location Name, Latitude {N+/S- Deg}, Longitude {E+/W- Deg},  Time Zone Number {GMT+/-}, Elevation {m},  Standard Pressure at Elevation {Pa}, Standard RhoAir at Elevation
Site:Location,Climate Zone 3 CA USA CTZRV2 WMO#=724930,37.70,-122.20,-8.00,2.00,101301,1.2040
! <Building Information>, Building Name,North Axis {deg},Terrain,  Loads Convergence Tolerance Value,Temperature Convergence Tolerance Value,  Solar Distribution,Maximum Number of Warmup Days,Minimum Number of Warmup Days
 Building Information,CEC T24 2001|RetailStandalone,0.000,Suburbs,4.00000E-002,0.40000,FullExterior,25,6
! <Inside Convection Algorithm>, Algorithm {Simple | TARP | CeilingDiffuser | AdaptiveConvectionAlgorithm}
Inside Convection Algorithm,TARP
! <Outside Convection Algorithm>, Algorithm {SimpleCombined | TARP | MoWitt | DOE-2 | AdaptiveConvectionAlgorithm}
Outside Convection Algorithm,DOE-2
! <Sky Radiance Distribution>, Value {Anisotropic}
Sky Radiance Distribution,Anisotropic
! <Zone Air Solution Algorithm>, Value {ThirdOrderBackwardDifference | AnalyticalSolution | EulerMethod}
 Zone Air Solution Algorithm, ThirdOrderBackwardDifference
! <Zone Air Carbon Dioxide Balance Simulation>, Simulation {Yes/No}, Carbon Dioxide Concentration
 Zone Air Carbon Dioxide Balance Simulation, No,N/A
! <Zone Air Generic Contaminant Balance Simulation>, Simulation {Yes/No}, Generic Contaminant Concentration
 Zone Air Generic Contaminant Balance Simulation, No,N/A
! <Zone Air Mass Flow Balance Simulation>, Enforce Mass Balance, Adjust Zone Mixing, Adjust Zone Infiltration {AddInfiltration | AdjustInfiltration | None}, Infiltration Zones {MixingSourceZonesOnly | AllZones}
 Zone Air Mass Flow Balance Simulation, No,N/A,N/A,N/A
! <Environment:Site Atmospheric Variation>,Wind Speed Profile Exponent {},Wind Speed Profile Boundary Layer Thickness {m},Air Temperature Gradient Coefficient {K/m}
Environment:Site Atmospheric Variation,0.220,370.000,6.500000E-003
! <Surface Geometry>,Starting Corner,Vertex Input Direction,Coordinate System,Daylight Reference Point Coordinate System,Rectangular (Simple) Surface Coordinate System
 Surface Geometry,UpperLeftCorner,Counterclockwise,RelativeCoordinateSystem,RelativeCoordinateSystem,RelativeToZoneOrigin
! <Surface Heat Transfer Algorithm>, Value {CTF - ConductionTransferFunction | EMPD - MoisturePenetrationDepthConductionTransferFunction | CondFD - ConductionFiniteDifference | HAMT - CombinedHeatAndMoistureFiniteElement} - Description,Inside Surface Max Temperature Limit{C}, Surface Convection Coefficient Lower Limit {W/m2-K}, Surface Convection Coefficient Upper Limit {W/m2-K}
Surface Heat Transfer Algorithm, CTF - ConductionTransferFunction,200,0.10,1000.0
! <Shading Summary>, Number of Fixed Detached Shades, Number of Building Detached Shades, Number of Attached Shades
 Shading Summary,0,0,0
! <Zone Summary>, Number of Zones, Number of Zone Surfaces, Number of SubSurfaces
 Zone Summary,18,126,18
! <Zone Information>,Zone Name,North Axis {deg},Origin X-Coordinate {m},Origin Y-Coordinate {m},Origin Z-Coordinate {m},Centroid X-Coordinate {m},Centroid Y-Coordinate {m},Centroid Z-Coordinate {m},Type,Zone Multiplier,Zone List Multiplier,Minimum X {m},Maximum X {m},Minimum Y {m},Maximum Y {m},Minimum Z {m},Maximum Z {m},Ceiling Height {m},Volume {m3},Zone Inside Convection Algorithm {Simple-Detailed-CeilingDiffuser-TrombeWall},Zone Outside Convection Algorithm {Simple-Detailed-Tarp-MoWitt-DOE-2-BLAST}, Floor Area {m2},Exterior Gross Wall Area {m2},Exterior Net Wall Area {m2},Exterior Window Area {m2}, Number of Surfaces, Number of SubSurfaces, Number of Shading SubSurfaces,  Part of Total Building Area
 Zone Information, ZONE RETAIL BACK_SPACE A  - STORY GROUND,0.0,30.39,-35.50,0.00,35.63,-33.21,3.05,1,1,1,30.39,40.87,-35.50,-30.93,0.00,6.10,6.10,292.02,TARP,DOE-2,47.90,63.87,59.40,4.47,6,1,0,Yes
 Zone Information, ZONE RETAIL BACK_SPACE A END_B - STORY GROUND,0.0,40.87,-35.50,0.00,43.15,-33.21,3.05,1,1,1,40.87,45.44,-35.50,-30.93,0.00,6.10,6.10,127.43,TARP,DOE-2,20.90,55.74,51.84,3.90,6,2,0,Yes
 Zone Information, ZONE RETAIL BACK_SPACE B  - STORY GROUND,0.0,30.39,-30.93,0.00,35.63,1.57E-014,3.05,1,1,1,30.39,40.87,-30.93,30.93,0.00,6.10,6.10,3950.74,TARP,DOE-2,648.09,0.00,0.00,0.00,6,0,0,Yes
 Zone Information, ZONE RETAIL BACK_SPACE B END_B - STORY GROUND,0.0,40.87,-30.93,0.00,43.15,1.57E-014,3.05,1,1,1,40.87,45.44,-30.93,30.93,0.00,6.10,6.10,1723.96,TARP,DOE-2,282.80,377.07,350.67,26.39,6,1,0,Yes
 Zone Information, ZONE RETAIL BACK_SPACE C  - STORY GROUND,0.0,30.39,30.93,0.00,35.63,33.21,3.05,1,1,1,30.39,40.87,30.93,35.50,0.00,6.10,6.10,292.02,TARP,DOE-2,47.90,63.87,59.40,4.47,6,1,0,Yes
 Zone Information, ZONE RETAIL BACK_SPACE C END_B - STORY GROUND,0.0,40.87,30.93,0.00,43.15,33.21,3.05,1,1,1,40.87,45.44,30.93,35.50,0.00,6.10,6.10,127.43,TARP,DOE-2,20.90,55.74,51.84,3.90,6,2,0,Yes
 Zone Information, ZONE RETAIL ENTRY A  - STORY GROUND,0.0,23.95,-35.50,0.00,24.18,-33.21,3.05,1,1,1,23.95,24.42,-35.50,-30.93,0.00,6.10,6.10,13.17,TARP,DOE-2,2.16,2.88,2.68,0.20,6,1,0,Yes
 Zone Information, ZONE RETAIL ENTRY B  - STORY GROUND,0.0,23.95,-30.93,0.00,24.18,1.60E-014,3.05,1,1,1,23.95,24.42,-30.93,30.93,0.00,6.10,6.10,178.19,TARP,DOE-2,29.23,0.00,0.00,0.00,6,0,0,Yes
 Zone Information, ZONE RETAIL ENTRY C  - STORY GROUND,0.0,23.95,30.93,0.00,24.18,33.21,3.05,1,1,1,23.95,24.42,30.93,35.50,0.00,6.10,6.10,13.17,TARP,DOE-2,2.16,2.88,2.68,0.20,6,1,0,Yes
 Zone Information, ZONE RETAIL POINT_OF_SALE A  - STORY GROUND,0.0,24.42,-35.50,0.00,27.40,-33.21,3.05,1,1,1,24.42,30.39,-35.50,-30.93,0.00,6.10,6.10,166.41,TARP,DOE-2,27.30,36.40,33.85,2.55,6,1,0,Yes
 Zone Information, ZONE RETAIL POINT_OF_SALE B  - STORY GROUND,0.0,24.42,-30.93,0.00,27.40,1.54E-014,3.05,1,1,1,24.42,30.39,-30.93,30.93,0.00,6.10,6.10,2251.37,TARP,DOE-2,369.32,0.00,0.00,0.00,6,0,0,Yes
 Zone Information, ZONE RETAIL POINT_OF_SALE C  - STORY GROUND,0.0,24.42,30.93,0.00,27.40,33.21,3.05,1,1,1,24.42,30.39,30.93,35.50,0.00,6.10,6.10,166.41,TARP,DOE-2,27.30,36.40,33.85,2.55,6,1,0,Yes
 Zone Information, ZONE RETAIL RETAIL A  - STORY GROUND,0.0,-40.87,-35.50,0.00,-8.46,-33.21,3.05,1,1,1,-40.87,23.95,-35.50,-30.93,0.00,6.10,6.10,1806.42,TARP,DOE-2,296.33,395.11,367.45,27.66,6,1,0,Yes
 Zone Information, ZONE RETAIL RETAIL A END_A - STORY GROUND,0.0,-45.44,-35.50,0.00,-43.15,-33.21,3.05,1,1,1,-45.44,-40.87,-35.50,-30.93,0.00,6.10,6.10,127.43,TARP,DOE-2,20.90,55.74,51.84,3.90,6,2,0,Yes
 Zone Information, ZONE RETAIL RETAIL B  - STORY GROUND,0.0,-40.87,-30.93,0.00,-8.46,1.59E-014,3.05,1,1,1,-40.87,23.95,-30.93,30.93,0.00,6.10,6.10,24439.27,TARP,DOE-2,4009.07,0.00,0.00,0.00,6,0,0,Yes
 Zone Information, ZONE RETAIL RETAIL B END_A - STORY GROUND,0.0,-45.44,-30.93,0.00,-43.15,1.61E-014,3.05,1,1,1,-45.44,-40.87,-30.93,30.93,0.00,6.10,6.10,1723.96,TARP,DOE-2,282.80,377.07,350.67,26.39,6,1,0,Yes
 Zone Information, ZONE RETAIL RETAIL C  - STORY GROUND,0.0,-40.87,30.93,0.00,-8.46,33.21,3.05,1,1,1,-40.87,23.95,30.93,35.50,0.00,6.10,6.10,1806.42,TARP,DOE-2,296.33,395.11,367.45,27.66,6,1,0,Yes
 Zone Information, ZONE RETAIL RETAIL C END_A - STORY GROUND,0.0,-45.44,30.93,0.00,-43.15,33.21,3.05,1,1,1,-45.44,-40.87,30.93,35.50,0.00,6.10,6.10,127.43,TARP,DOE-2,20.90,55.74,51.84,3.90,6,2,0,Yes
! <Zone Internal Gains Nominal>,Zone Name, Floor Area {m2},# Occupants,Area per Occupant {m2/person},Occupant per Area {person/m2},Interior Lighting {W/m2},Electric Load {W/m2},Gas Load {W/m2},Other Load {W/m2},Hot Water Eq {W/m2},Steam Equipment {W/m2},Sum Loads per Area {W/m2},Outdoor Controlled Baseboard Heat
 Zone Internal Gains Nominal, ZONE RETAIL BACK_SPACE A  - STORY GROUND,47.90,1.5,30.968,3.229E-002,6.631,2.153,0.000,0.000,0.000,0.000,8.783,No
 Zone Internal Gains Nominal, ZONE RETAIL BACK_SPACE A END_B - STORY GROUND,20.90,0.7,30.968,3.229E-002,6.631,2.153,0.000,0.000,0.000,0.000,8.783,No
 Zone Internal Gains Nominal, ZONE RETAIL BACK_SPACE B  - STORY GROUND,648.09,20.9,30.968,3.229E-002,6.631,2.153,0.000,0.000,0.000,0.000,8.783,No
 Zone Internal Gains Nominal, ZONE RETAIL BACK_SPACE B END_B - STORY GROUND,282.80,9.1,30.968,3.229E-002,6.631,2.153,0.000,0.000,0.000,0.000,8.783,No
 Zone Internal Gains Nominal, ZONE RETAIL BACK_SPACE C  - STORY GROUND,47.90,1.5,30.968,3.229E-002,6.631,2.153,0.000,0.000,0.000,0.000,8.783,No
 Zone Internal Gains Nominal, ZONE RETAIL BACK_SPACE C END_B - STORY GROUND,20.90,0.7,30.968,3.229E-002,6.631,2.153,0.000,0.000,0.000,0.000,8.783,No
 Zone Internal Gains Nominal, ZONE RETAIL ENTRY A  - STORY GROUND,2.16,0.8,2.814,0.355,25.317,10.764,0.000,0.000,0.000,0.000,36.081,No
 Zone Internal Gains Nominal, ZONE RETAIL ENTRY B  - STORY GROUND,29.23,10.4,2.814,0.355,25.317,10.764,0.000,0.000,0.000,0.000,36.081,No
 Zone Internal Gains Nominal, ZONE RETAIL ENTRY C  - STORY GROUND,2.16,0.8,2.814,0.355,25.317,10.764,0.000,0.000,0.000,0.000,36.081,No
 Zone Internal Gains Nominal, ZONE RETAIL POINT_OF_SALE A  - STORY GROUND,27.30,9.7,2.814,0.355,25.317,10.764,0.000,0.000,0.000,0.000,36.081,No
 Zone Internal Gains Nominal, ZONE RETAIL POINT_OF_SALE B  - STORY GROUND,369.32,131.2,2.814,0.355,25.317,10.764,0.000,0.000,0.000,0.000,36.081,No
 Zone Internal Gains Nominal, ZONE RETAIL POINT_OF_SALE C  - STORY GROUND,27.30,9.7,2.814,0.355,25.317,10.764,0.000,0.000,0.000,0.000,36.081,No
 Zone Internal Gains Nominal, ZONE RETAIL RETAIL A  - STORY GROUND,296.33,105.3,2.814,0.355,25.317,10.764,0.000,0.000,0.000,0.000,36.081,No
 Zone Internal Gains Nominal, ZONE RETAIL RETAIL A END_A - STORY GROUND,20.90,7.4,2.814,0.355,25.317,10.764,0.000,0.000,0.000,0.000,36.081,No
 Zone Internal Gains Nominal, ZONE RETAIL RETAIL B  - STORY GROUND,4009.07,1424.5,2.814,0.355,25.317,10.764,0.000,0.000,0.000,0.000,36.081,No
 Zone Internal Gains Nominal, ZONE RETAIL RETAIL B END_A - STORY GROUND,282.80,100.5,2.814,0.355,25.317,10.764,0.000,0.000,0.000,0.000,36.081,No
 Zone Internal Gains Nominal, ZONE RETAIL RETAIL C  - STORY GROUND,296.33,105.3,2.814,0.355,25.317,10.764,0.000,0.000,0.000,0.000,36.081,No
 Zone Internal Gains Nominal, ZONE RETAIL RETAIL C END_A - STORY GROUND,20.90,7.4,2.814,0.355,25.317,10.764,0.000,0.000,0.000,0.000,36.081,No
! <People Internal Gains Nominal>,Name,Schedule Name,Zone Name,Zone Floor Area {m2},# Zone Occupants,Number of People {},People/Floor Area {person/m2},Floor Area per person {m2/person},Fraction Radiant,Fraction Convected,Sensible Fraction Calculation,Activity level,ASHRAE 55 Warnings,Carbon Dioxide Generation Rate,Nominal Minimum Number of People,Nominal Maximum Number of People
 People Internal Gains Nominal, ZONE RETAIL BACK_SPACE A  - STORY GROUND RETAIL BACK_SPACE PEOPLE,RETAILOCCUPANCY,ZONE RETAIL BACK_SPACE A  - STORY GROUND,47.90,1.5,1.5,3.229E-002,30.968,0.300,0.700,AutoCalculate,RETAILPEOPLEACTIVITYLEVEL,No,3.8200E-008,0,2
 People Internal Gains Nominal, ZONE RETAIL BACK_SPACE A END_B - STORY GROUND RETAIL BACK_SPACE PEOPLE,RETAILOCCUPANCY,ZONE RETAIL BACK_SPACE A END_B - STORY GROUND,20.90,0.7,0.7,3.229E-002,30.968,0.300,0.700,AutoCalculate,RETAILPEOPLEACTIVITYLEVEL,No,3.8200E-008,0,1
 People Internal Gains Nominal, ZONE RETAIL BACK_SPACE B  - STORY GROUND RETAIL BACK_SPACE PEOPLE,RETAILOCCUPANCY,ZONE RETAIL BACK_SPACE B  - STORY GROUND,648.09,20.9,20.9,3.229E-002,30.968,0.300,0.700,AutoCalculate,RETAILPEOPLEACTIVITYLEVEL,No,3.8200E-008,0,21
 People Internal Gains Nominal, ZONE RETAIL BACK_SPACE B END_B - STORY GROUND RETAIL BACK_SPACE PEOPLE,RETAILOCCUPANCY,ZONE RETAIL BACK_SPACE B END_B - STORY GROUND,282.80,9.1,9.1,3.229E-002,30.968,0.300,0.700,AutoCalculate,RETAILPEOPLEACTIVITYLEVEL,No,3.8200E-008,0,9
 People Internal Gains Nominal, ZONE RETAIL BACK_SPACE C  - STORY GROUND RETAIL BACK_SPACE PEOPLE,RETAILOCCUPANCY,ZONE RETAIL BACK_SPACE C  - STORY GROUND,47.90,1.5,1.5,3.229E-002,30.968,0.300,0.700,AutoCalculate,RETAILPEOPLEACTIVITYLEVEL,No,3.8200E-008,0,2
 People Internal Gains Nominal, ZONE RETAIL BACK_SPACE C END_B - STORY GROUND RETAIL BACK_SPACE PEOPLE,RETAILOCCUPANCY,ZONE RETAIL BACK_SPACE C END_B - STORY GROUND,20.90,0.7,0.7,3.229E-002,30.968,0.300,0.700,AutoCalculate,RETAILPEOPLEACTIVITYLEVEL,No,3.8200E-008,0,1
 People Internal Gains Nominal, ZONE RETAIL ENTRY A  - STORY GROUND RETAIL ENTRY PEOPLE,RETAILOCCUPANCY,ZONE RETAIL ENTRY A  - STORY GROUND,2.16,0.8,0.8,0.355,2.814,0.300,0.700,AutoCalculate,RETAILPEOPLEACTIVITYLEVEL,No,3.8200E-008,0,1
 People Internal Gains Nominal, ZONE RETAIL ENTRY B  - STORY GROUND RETAIL ENTRY PEOPLE,RETAILOCCUPANCY,ZONE RETAIL ENTRY B  - STORY GROUND,29.23,10.4,10.4,0.355,2.814,0.300,0.700,AutoCalculate,RETAILPEOPLEACTIVITYLEVEL,No,3.8200E-008,0,10
 People Internal Gains Nominal, ZONE RETAIL ENTRY C  - STORY GROUND RETAIL ENTRY PEOPLE,RETAILOCCUPANCY,ZONE RETAIL ENTRY C  - STORY GROUND,2.16,0.8,0.8,0.355,2.814,0.300,0.700,AutoCalculate,RETAILPEOPLEACTIVITYLEVEL,No,3.8200E-008,0,1
 People Internal Gains Nominal, ZONE RETAIL POINT_OF_SALE A  - STORY GROUND RETAIL POINT_OF_SALE PEOPLE,RETAILOCCUPANCY,ZONE RETAIL POINT_OF_SALE A  - STORY GROUND,27.30,9.7,9.7,0.355,2.814,0.300,0.700,AutoCalculate,RETAILPEOPLEACTIVITYLEVEL,No,3.8200E-008,0,10
 People Internal Gains Nominal, ZONE RETAIL POINT_OF_SALE B  - STORY GROUND RETAIL POINT_OF_SALE PEOPLE,RETAILOCCUPANCY,ZONE RETAIL POINT_OF_SALE B  - STORY GROUND,369.32,131.2,131.2,0.355,2.814,0.300,0.700,AutoCalculate,RETAILPEOPLEACTIVITYLEVEL,No,3.8200E-008,0,131
 People Internal Gains Nominal, ZONE RETAIL POINT_OF_SALE C  - STORY GROUND RETAIL POINT_OF_SALE PEOPLE,RETAILOCCUPANCY,ZONE RETAIL POINT_OF_SALE C  - STORY GROUND,27.30,9.7,9.7,0.355,2.814,0.300,0.700,AutoCalculate,RETAILPEOPLEACTIVITYLEVEL,No,3.8200E-008,0,10
 People Internal Gains Nominal, ZONE RETAIL RETAIL A  - STORY GROUND RETAIL RETAIL PEOPLE,RETAILOCCUPANCY,ZONE RETAIL RETAIL A  - STORY GROUND,296.33,105.3,105.3,0.355,2.814,0.300,0.700,AutoCalculate,RETAILPEOPLEACTIVITYLEVEL,No,3.8200E-008,0,105
 People Internal Gains Nominal, ZONE RETAIL RETAIL A END_A - STORY GROUND RETAIL RETAIL PEOPLE,RETAILOCCUPANCY,ZONE RETAIL RETAIL A END_A - STORY GROUND,20.90,7.4,7.4,0.355,2.814,0.300,0.700,AutoCalculate,RETAILPEOPLEACTIVITYLEVEL,No,3.8200E-008,0,7
 People Internal Gains Nominal, ZONE RETAIL RETAIL B  - STORY GROUND RETAIL RETAIL PEOPLE,RETAILOCCUPANCY,ZONE RETAIL RETAIL B  - STORY GROUND,4009.07,1424.5,1424.5,0.355,2.814,0.300,0.700,AutoCalculate,RETAILPEOPLEACTIVITYLEVEL,No,3.8200E-008,0,1424
 People Internal Gains Nominal, ZONE RETAIL RETAIL B END_A - STORY GROUND RETAIL RETAIL PEOPLE,RETAILOCCUPANCY,ZONE RETAIL RETAIL B END_A - STORY GROUND,282.80,100.5,100.5,0.355,2.814,0.300,0.700,AutoCalculate,RETAILPEOPLEACTIVITYLEVEL,No,3.8200E-008,0,100
 People Internal Gains Nominal, ZONE RETAIL RETAIL C  - STORY GROUND RETAIL RETAIL PEOPLE,RETAILOCCUPANCY,ZONE RETAIL RETAIL C  - STORY GROUND,296.33,105.3,105.3,0.355,2.814,0.300,0.700,AutoCalculate,RETAILPEOPLEACTIVITYLEVEL,No,3.8200E-008,0,105
 People Internal Gains Nominal, ZONE RETAIL RETAIL C END_A - STORY GROUND RETAIL RETAIL PEOPLE,RETAILOCCUPANCY,ZONE RETAIL RETAIL C END_A - STORY GROUND,20.90,7.4,7.4,0.355,2.814,0.300,0.700,AutoCalculate,RETAILPEOPLEACTIVITYLEVEL,No,3.8200E-008,0,7
! <Lights Internal Gains Nominal>,Name,Schedule Name,Zone Name,Zone Floor Area {m2},# Zone Occupants,Lighting Level {W},Lights/Floor Area {W/m2},Lights per person {W/person},Fraction Return Air,Fraction Radiant,Fraction Short Wave,Fraction Convected,Fraction Replaceable,End-Use Category,Nominal Minimum Lighting Level {W},Nominal Maximum Lighting Level {W}
 Lights Internal Gains Nominal, ZONE RETAIL BACK_SPACE A  - STORY GROUND RETAIL BACK_SPACE LIGHTS 30.0 PERCENT REDUCTION,RETAILLIGHTS,ZONE RETAIL BACK_SPACE A  - STORY GROUND,47.90,1.5,317.626,6.631,205.333,0.000,0.700,0.200,0.100,1.000,General,0.000,317.626
 Lights Internal Gains Nominal, ZONE RETAIL BACK_SPACE A END_B - STORY GROUND RETAIL BACK_SPACE LIGHTS 30.0 PERCENT REDUCTION,RETAILLIGHTS,ZONE RETAIL BACK_SPACE A END_B - STORY GROUND,20.90,0.7,138.600,6.631,205.333,0.000,0.700,0.200,0.100,1.000,General,0.000,138.600
 Lights Internal Gains Nominal, ZONE RETAIL BACK_SPACE B  - STORY GROUND RETAIL BACK_SPACE LIGHTS 30.0 PERCENT REDUCTION,RETAILLIGHTS,ZONE RETAIL BACK_SPACE B  - STORY GROUND,648.09,20.9,4297.187,6.631,205.333,0.000,0.700,0.200,0.100,1.000,General,0.000,4297.187
 Lights Internal Gains Nominal, ZONE RETAIL BACK_SPACE B END_B - STORY GROUND RETAIL BACK_SPACE LIGHTS 30.0 PERCENT REDUCTION,RETAILLIGHTS,ZONE RETAIL BACK_SPACE B END_B - STORY GROUND,282.80,9.1,1875.133,6.631,205.333,0.000,0.700,0.200,0.100,1.000,General,0.000,1875.133
 Lights Internal Gains Nominal, ZONE RETAIL BACK_SPACE C  - STORY GROUND RETAIL BACK_SPACE LIGHTS 30.0 PERCENT REDUCTION,RETAILLIGHTS,ZONE RETAIL BACK_SPACE C  - STORY GROUND,47.90,1.5,317.626,6.631,205.333,0.000,0.700,0.200,0.100,1.000,General,0.000,317.626
 Lights Internal Gains Nominal, ZONE RETAIL BACK_SPACE C END_B - STORY GROUND RETAIL BACK_SPACE LIGHTS 30.0 PERCENT REDUCTION,RETAILLIGHTS,ZONE RETAIL BACK_SPACE C END_B - STORY GROUND,20.90,0.7,138.600,6.631,205.333,0.000,0.700,0.200,0.100,1.000,General,0.000,138.600
 Lights Internal Gains Nominal, ZONE RETAIL ENTRY A  - STORY GROUND RETAIL ENTRY LIGHTS 30.0 PERCENT REDUCTION,RETAILLIGHTS,ZONE RETAIL ENTRY A  - STORY GROUND,2.16,0.8,54.699,25.317,71.251,0.000,0.700,0.200,0.100,1.000,General,0.000,54.699
 Lights Internal Gains Nominal, ZONE RETAIL ENTRY B  - STORY GROUND RETAIL ENTRY LIGHTS 30.0 PERCENT REDUCTION,RETAILLIGHTS,ZONE RETAIL ENTRY B  - STORY GROUND,29.23,10.4,740.028,25.317,71.251,0.000,0.700,0.200,0.100,1.000,General,0.000,740.028
 Lights Internal Gains Nominal, ZONE RETAIL ENTRY C  - STORY GROUND RETAIL ENTRY LIGHTS 30.0 PERCENT REDUCTION,RETAILLIGHTS,ZONE RETAIL ENTRY C  - STORY GROUND,2.16,0.8,54.699,25.317,71.251,0.000,0.700,0.200,0.100,1.000,General,0.000,54.699
 Lights Internal Gains Nominal, ZONE RETAIL POINT_OF_SALE A  - STORY GROUND RETAIL POINT_OF_SALE LIGHTS 30.0 PERCENT REDUCTION,RETAILLIGHTS,ZONE RETAIL POINT_OF_SALE A  - STORY GROUND,27.30,9.7,691.101,25.317,71.251,0.000,0.700,0.200,0.100,1.000,General,0.000,691.101
 Lights Internal Gains Nominal, ZONE RETAIL POINT_OF_SALE B  - STORY GROUND RETAIL POINT_OF_SALE LIGHTS 30.0 PERCENT REDUCTION,RETAILLIGHTS,ZONE RETAIL POINT_OF_SALE B  - STORY GROUND,369.32,131.2,9349.966,25.317,71.251,0.000,0.700,0.200,0.100,1.000,General,0.000,9349.966
 Lights Internal Gains Nominal, ZONE RETAIL POINT_OF_SALE C  - STORY GROUND RETAIL POINT_OF_SALE LIGHTS 30.0 PERCENT REDUCTION,RETAILLIGHTS,ZONE RETAIL POINT_OF_SALE C  - STORY GROUND,27.30,9.7,691.101,25.317,71.251,0.000,0.700,0.200,0.100,1.000,General,0.000,691.101
 Lights Internal Gains Nominal, ZONE RETAIL RETAIL A  - STORY GROUND RETAIL RETAIL LIGHTS 30.0 PERCENT REDUCTION,RETAILLIGHTS,ZONE RETAIL RETAIL A  - STORY GROUND,296.33,105.3,7502.084,25.317,71.251,0.000,0.700,0.200,0.100,1.000,General,0.000,7502.084
 Lights Internal Gains Nominal, ZONE RETAIL RETAIL A END_A - STORY GROUND RETAIL RETAIL LIGHTS 30.0 PERCENT REDUCTION,RETAILLIGHTS,ZONE RETAIL RETAIL A END_A - STORY GROUND,20.90,7.4,529.200,25.317,71.251,0.000,0.700,0.200,0.100,1.000,General,0.000,529.200
 Lights Internal Gains Nominal, ZONE RETAIL RETAIL B  - STORY GROUND RETAIL RETAIL LIGHTS 30.0 PERCENT REDUCTION,RETAILLIGHTS,ZONE RETAIL RETAIL B  - STORY GROUND,4009.07,1424.5,101496.403,25.317,71.251,0.000,0.700,0.200,0.100,1.000,General,0.000,101496.403
 Lights Internal Gains Nominal, ZONE RETAIL RETAIL B END_A - STORY GROUND RETAIL RETAIL LIGHTS 30.0 PERCENT REDUCTION,RETAILLIGHTS,ZONE RETAIL RETAIL B END_A - STORY GROUND,282.80,100.5,7159.597,25.317,71.251,0.000,0.700,0.200,0.100,1.000,General,0.000,7159.597
 Lights Internal Gains Nominal, ZONE RETAIL RETAIL C  - STORY GROUND RETAIL RETAIL LIGHTS 30.0 PERCENT REDUCTION,RETAILLIGHTS,ZONE RETAIL RETAIL C  - STORY GROUND,296.33,105.3,7502.084,25.317,71.251,0.000,0.700,0.200,0.100,1.000,General,0.000,7502.084
 Lights Internal Gains Nominal, ZONE RETAIL RETAIL C END_A - STORY GROUND RETAIL RETAIL LIGHTS 30.0 PERCENT REDUCTION,RETAILLIGHTS,ZONE RETAIL RETAIL C END_A - STORY GROUND,20.90,7.4,529.200,25.317,71.251,0.000,0.700,0.200,0.100,1.000,General,0.000,529.200
! <ElectricEquipment Internal Gains Nominal>,Name,Schedule Name,Zone Name,Zone Floor Area {m2},# Zone Occupants,Equipment Level {W},Equipment/Floor Area {W/m2},Equipment per person {W/person},Fraction Latent,Fraction Radiant,Fraction Lost,Fraction Convected,End-Use SubCategory,Nominal Minimum Equipment Level {W},Nominal Maximum Equipment Level {W}
 ElectricEquipment Internal Gains Nominal, ZONE RETAIL BACK_SPACE A  - STORY GROUND RETAIL BACK_SPACE ELEC EQUIP,RETAILRECEPTACLE,ZONE RETAIL BACK_SPACE A  - STORY GROUND,47.90,1.5,103.125,2.153,66.667,0.000,0.200,0.000,0.800,General,0.000,103.125
 ElectricEquipment Internal Gains Nominal, ZONE RETAIL BACK_SPACE A END_B - STORY GROUND RETAIL BACK_SPACE ELEC EQUIP,RETAILRECEPTACLE,ZONE RETAIL BACK_SPACE A END_B - STORY GROUND,20.90,0.7,45.000,2.153,66.667,0.000,0.200,0.000,0.800,General,0.000,45.000
 ElectricEquipment Internal Gains Nominal, ZONE RETAIL BACK_SPACE B  - STORY GROUND RETAIL BACK_SPACE ELEC EQUIP,RETAILRECEPTACLE,ZONE RETAIL BACK_SPACE B  - STORY GROUND,648.09,20.9,1395.191,2.153,66.667,0.000,0.200,0.000,0.800,General,0.000,1395.191
 ElectricEquipment Internal Gains Nominal, ZONE RETAIL BACK_SPACE B END_B - STORY GROUND RETAIL BACK_SPACE ELEC EQUIP,RETAILRECEPTACLE,ZONE RETAIL BACK_SPACE B END_B - STORY GROUND,282.80,9.1,608.809,2.153,66.667,0.000,0.200,0.000,0.800,General,0.000,608.809
 ElectricEquipment Internal Gains Nominal, ZONE RETAIL BACK_SPACE C  - STORY GROUND RETAIL BACK_SPACE ELEC EQUIP,RETAILRECEPTACLE,ZONE RETAIL BACK_SPACE C  - STORY GROUND,47.90,1.5,103.125,2.153,66.667,0.000,0.200,0.000,0.800,General,0.000,103.125
 ElectricEquipment Internal Gains Nominal, ZONE RETAIL BACK_SPACE C END_B - STORY GROUND RETAIL BACK_SPACE ELEC EQUIP,RETAILRECEPTACLE,ZONE RETAIL BACK_SPACE C END_B - STORY GROUND,20.90,0.7,45.000,2.153,66.667,0.000,0.200,0.000,0.800,General,0.000,45.000
 ElectricEquipment Internal Gains Nominal, ZONE RETAIL ENTRY A  - STORY GROUND RETAIL ENTRY ELEC EQUIP,RETAILRECEPTACLE,ZONE RETAIL ENTRY A  - STORY GROUND,2.16,0.8,23.256,10.764,30.294,0.000,0.200,0.000,0.800,General,0.000,23.256
 ElectricEquipment Internal Gains Nominal, ZONE RETAIL ENTRY B  - STORY GROUND RETAIL ENTRY ELEC EQUIP,RETAILRECEPTACLE,ZONE RETAIL ENTRY B  - STORY GROUND,29.23,10.4,314.638,10.764,30.294,0.000,0.200,0.000,0.800,General,0.000,314.638
 ElectricEquipment Internal Gains Nominal, ZONE RETAIL ENTRY C  - STORY GROUND RETAIL ENTRY ELEC EQUIP,RETAILRECEPTACLE,ZONE RETAIL ENTRY C  - STORY GROUND,2.16,0.8,23.256,10.764,30.294,0.000,0.200,0.000,0.800,General,0.000,23.256
 ElectricEquipment Internal Gains Nominal, ZONE RETAIL POINT_OF_SALE A  - STORY GROUND RETAIL POINT_OF_SALE ELEC EQUIP,RETAILRECEPTACLE,ZONE RETAIL POINT_OF_SALE A  - STORY GROUND,27.30,9.7,293.835,10.764,30.294,0.000,0.200,0.000,0.800,General,0.000,293.835
 ElectricEquipment Internal Gains Nominal, ZONE RETAIL POINT_OF_SALE B  - STORY GROUND RETAIL POINT_OF_SALE ELEC EQUIP,RETAILRECEPTACLE,ZONE RETAIL POINT_OF_SALE B  - STORY GROUND,369.32,131.2,3975.326,10.764,30.294,0.000,0.200,0.000,0.800,General,0.000,3975.326
 ElectricEquipment Internal Gains Nominal, ZONE RETAIL POINT_OF_SALE C  - STORY GROUND RETAIL POINT_OF_SALE ELEC EQUIP,RETAILRECEPTACLE,ZONE RETAIL POINT_OF_SALE C  - STORY GROUND,27.30,9.7,293.835,10.764,30.294,0.000,0.200,0.000,0.800,General,0.000,293.835
 ElectricEquipment Internal Gains Nominal, ZONE RETAIL RETAIL A  - STORY GROUND RETAIL RETAIL ELEC EQUIP,RETAILRECEPTACLE,ZONE RETAIL RETAIL A  - STORY GROUND,296.33,105.3,3189.662,10.764,30.294,0.000,0.200,0.000,0.800,General,0.000,3189.662
 ElectricEquipment Internal Gains Nominal, ZONE RETAIL RETAIL A END_A - STORY GROUND RETAIL RETAIL ELEC EQUIP,RETAILRECEPTACLE,ZONE RETAIL RETAIL A END_A - STORY GROUND,20.90,7.4,225.000,10.764,30.294,0.000,0.200,0.000,0.800,General,0.000,225.000
 ElectricEquipment Internal Gains Nominal, ZONE RETAIL RETAIL B  - STORY GROUND RETAIL RETAIL ELEC EQUIP,RETAILRECEPTACLE,ZONE RETAIL RETAIL B  - STORY GROUND,4009.07,1424.5,43153.233,10.764,30.294,0.000,0.200,0.000,0.800,General,0.000,43153.233
 ElectricEquipment Internal Gains Nominal, ZONE RETAIL RETAIL B END_A - STORY GROUND RETAIL RETAIL ELEC EQUIP,RETAILRECEPTACLE,ZONE RETAIL RETAIL B END_A - STORY GROUND,282.80,100.5,3044.046,10.764,30.294,0.000,0.200,0.000,0.800,General,0.000,3044.046
 ElectricEquipment Internal Gains Nominal, ZONE RETAIL RETAIL C  - STORY GROUND RETAIL RETAIL ELEC EQUIP,RETAILRECEPTACLE,ZONE RETAIL RETAIL C  - STORY GROUND,296.33,105.3,3189.662,10.764,30.294,0.000,0.200,0.000,0.800,General,0.000,3189.662
 ElectricEquipment Internal Gains Nominal, ZONE RETAIL RETAIL C END_A - STORY GROUND RETAIL RETAIL ELEC EQUIP,RETAILRECEPTACLE,ZONE RETAIL RETAIL C END_A - STORY GROUND,20.90,7.4,225.000,10.764,30.294,0.000,0.200,0.000,0.800,General,0.000,225.000
! <Shadowing/Sun Position Calculations Annual Simulations>, Calculation Method, Value {days}, Allowable Number Figures in Shadow Overlap {}, Polygon Clipping Algorithm, Sky Diffuse Modeling Algorithm
Shadowing/Sun Position Calculations Annual Simulations,AverageOverDaysInFrequency,20,15000,SutherlandHodgman,SimpleSkyDiffuseModeling
! <ZoneInfiltration Airflow Stats Nominal>,Name,Schedule Name,Zone Name, Zone Floor Area {m2}, # Zone Occupants,Design Volume Flow Rate {m3/s},Volume Flow Rate/Floor Area {m3/s/m2},Volume Flow Rate/Exterior Surface Area {m3/s/m2},ACH - Air Changes per Hour,Equation A - Constant Term Coefficient {},Equation B - Temperature Term Coefficient {1/C},Equation C - Velocity Term Coefficient {s/m}, Equation D - Velocity Squared Term Coefficient {s2/m2}
 ZoneInfiltration Airflow Stats Nominal, ZONE RETAIL BACK_SPACE A  - STORY GROUND RETAIL BACK_SPACE INFILTRATION,RETAILINFILTRATION,ZONE RETAIL BACK_SPACE A  - STORY GROUND,47.90,1.5,0.125,2.608E-003,1.118E-003,1.540,1.000,0.000,0.000,0.000
 ZoneInfiltration Airflow Stats Nominal, ZONE RETAIL BACK_SPACE A END_B - STORY GROUND RETAIL BACK_SPACE INFILTRATION,RETAILINFILTRATION,ZONE RETAIL BACK_SPACE A END_B - STORY GROUND,20.90,0.7,8.566E-002,4.098E-003,1.118E-003,2.420,1.000,0.000,0.000,0.000
 ZoneInfiltration Airflow Stats Nominal, ZONE RETAIL BACK_SPACE B  - STORY GROUND RETAIL BACK_SPACE INFILTRATION,RETAILINFILTRATION,ZONE RETAIL BACK_SPACE B  - STORY GROUND,648.09,20.9,0.724,1.118E-003,1.118E-003,0.660,1.000,0.000,0.000,0.000
 ZoneInfiltration Airflow Stats Nominal, ZONE RETAIL BACK_SPACE B END_B - STORY GROUND RETAIL BACK_SPACE INFILTRATION,RETAILINFILTRATION,ZONE RETAIL BACK_SPACE B END_B - STORY GROUND,282.80,9.1,0.737,2.608E-003,1.118E-003,1.540,1.000,0.000,0.000,0.000
 ZoneInfiltration Airflow Stats Nominal, ZONE RETAIL BACK_SPACE C  - STORY GROUND RETAIL BACK_SPACE INFILTRATION,RETAILINFILTRATION,ZONE RETAIL BACK_SPACE C  - STORY GROUND,47.90,1.5,0.125,2.608E-003,1.118E-003,1.540,1.000,0.000,0.000,0.000
 ZoneInfiltration Airflow Stats Nominal, ZONE RETAIL BACK_SPACE C END_B - STORY GROUND RETAIL BACK_SPACE INFILTRATION,RETAILINFILTRATION,ZONE RETAIL BACK_SPACE C END_B - STORY GROUND,20.90,0.7,8.566E-002,4.098E-003,1.118E-003,2.420,1.000,0.000,0.000,0.000
 ZoneInfiltration Airflow Stats Nominal, ZONE RETAIL ENTRY A  - STORY GROUND RETAIL ENTRY INFILTRATION,RETAILINFILTRATION,ZONE RETAIL ENTRY A  - STORY GROUND,2.16,0.8,5.634E-003,2.608E-003,1.118E-003,1.540,1.000,0.000,0.000,0.000
 ZoneInfiltration Airflow Stats Nominal, ZONE RETAIL ENTRY B  - STORY GROUND RETAIL ENTRY INFILTRATION,RETAILINFILTRATION,ZONE RETAIL ENTRY B  - STORY GROUND,29.23,10.4,3.267E-002,1.118E-003,1.118E-003,0.660,1.000,0.000,0.000,0.000
 ZoneInfiltration Airflow Stats Nominal, ZONE RETAIL ENTRY C  - STORY GROUND RETAIL ENTRY INFILTRATION,RETAILINFILTRATION,ZONE RETAIL ENTRY C  - STORY GROUND,2.16,0.8,5.634E-003,2.608E-003,1.118E-003,1.540,1.000,0.000,0.000,0.000
 ZoneInfiltration Airflow Stats Nominal, ZONE RETAIL POINT_OF_SALE A  - STORY GROUND RETAIL POINT_OF_SALE INFILTRATION,RETAILINFILTRATION,ZONE RETAIL POINT_OF_SALE A  - STORY GROUND,27.30,9.7,7.119E-002,2.608E-003,1.118E-003,1.540,1.000,0.000,0.000,0.000
 ZoneInfiltration Airflow Stats Nominal, ZONE RETAIL POINT_OF_SALE B  - STORY GROUND RETAIL POINT_OF_SALE INFILTRATION,RETAILINFILTRATION,ZONE RETAIL POINT_OF_SALE B  - STORY GROUND,369.32,131.2,0.413,1.118E-003,1.118E-003,0.660,1.000,0.000,0.000,0.000
 ZoneInfiltration Airflow Stats Nominal, ZONE RETAIL POINT_OF_SALE C  - STORY GROUND RETAIL POINT_OF_SALE INFILTRATION,RETAILINFILTRATION,ZONE RETAIL POINT_OF_SALE C  - STORY GROUND,27.30,9.7,7.119E-002,2.608E-003,1.118E-003,1.540,1.000,0.000,0.000,0.000
 ZoneInfiltration Airflow Stats Nominal, ZONE RETAIL RETAIL A  - STORY GROUND RETAIL RETAIL INFILTRATION,RETAILINFILTRATION,ZONE RETAIL RETAIL A  - STORY GROUND,296.33,105.3,0.773,2.608E-003,1.118E-003,1.540,1.000,0.000,0.000,0.000
 ZoneInfiltration Airflow Stats Nominal, ZONE RETAIL RETAIL A END_A - STORY GROUND RETAIL RETAIL INFILTRATION,RETAILINFILTRATION,ZONE RETAIL RETAIL A END_A - STORY GROUND,20.90,7.4,8.566E-002,4.098E-003,1.118E-003,2.420,1.000,0.000,0.000,0.000
 ZoneInfiltration Airflow Stats Nominal, ZONE RETAIL RETAIL B  - STORY GROUND RETAIL RETAIL INFILTRATION,RETAILINFILTRATION,ZONE RETAIL RETAIL B  - STORY GROUND,4009.07,1424.5,4.481,1.118E-003,1.118E-003,0.660,1.000,0.000,0.000,0.000
 ZoneInfiltration Airflow Stats Nominal, ZONE RETAIL RETAIL B END_A - STORY GROUND RETAIL RETAIL INFILTRATION,RETAILINFILTRATION,ZONE RETAIL RETAIL B END_A - STORY GROUND,282.80,100.5,0.737,2.608E-003,1.118E-003,1.540,1.000,0.000,0.000,0.000
 ZoneInfiltration Airflow Stats Nominal, ZONE RETAIL RETAIL C  - STORY GROUND RETAIL RETAIL INFILTRATION,RETAILINFILTRATION,ZONE RETAIL RETAIL C  - STORY GROUND,296.33,105.3,0.773,2.608E-003,1.118E-003,1.540,1.000,0.000,0.000,0.000
 ZoneInfiltration Airflow Stats Nominal, ZONE RETAIL RETAIL C END_A - STORY GROUND RETAIL RETAIL INFILTRATION,RETAILINFILTRATION,ZONE RETAIL RETAIL C END_A - STORY GROUND,20.90,7.4,8.566E-002,4.098E-003,1.118E-003,2.420,1.000,0.000,0.000,0.000
! <AirFlow Model>, Simple
 AirFlow Model, Simple
! <RoomAir Model>, Zone Name, Mixing/Mundt/UCSDDV/UCSDCV/UCSDUFI/UCSDUFE/User Defined
RoomAir Model,ZONE RETAIL BACK_SPACE A  - STORY GROUND,Mixing/Well-Stirred
RoomAir Model,ZONE RETAIL BACK_SPACE A END_B - STORY GROUND,Mixing/Well-Stirred
RoomAir Model,ZONE RETAIL BACK_SPACE B  - STORY GROUND,Mixing/Well-Stirred
RoomAir Model,ZONE RETAIL BACK_SPACE B END_B - STORY GROUND,Mixing/Well-Stirred
RoomAir Model,ZONE RETAIL BACK_SPACE C  - STORY GROUND,Mixing/Well-Stirred
RoomAir Model,ZONE RETAIL BACK_SPACE C END_B - STORY GROUND,Mixing/Well-Stirred
RoomAir Model,ZONE RETAIL ENTRY A  - STORY GROUND,Mixing/Well-Stirred
RoomAir Model,ZONE RETAIL ENTRY B  - STORY GROUND,Mixing/Well-Stirred
RoomAir Model,ZONE RETAIL ENTRY C  - STORY GROUND,Mixing/Well-Stirred
RoomAir Model,ZONE RETAIL POINT_OF_SALE A  - STORY GROUND,Mixing/Well-Stirred
RoomAir Model,ZONE RETAIL POINT_OF_SALE B  - STORY GROUND,Mixing/Well-Stirred
RoomAir Model,ZONE RETAIL POINT_OF_SALE C  - STORY GROUND,Mixing/Well-Stirred
RoomAir Model,ZONE RETAIL RETAIL A  - STORY GROUND,Mixing/Well-Stirred
RoomAir Model,ZONE RETAIL RETAIL A END_A - STORY GROUND,Mixing/Well-Stirred
RoomAir Model,ZONE RETAIL RETAIL B  - STORY GROUND,Mixing/Well-Stirred
RoomAir Model,ZONE RETAIL RETAIL B END_A - STORY GROUND,Mixing/Well-Stirred
RoomAir Model,ZONE RETAIL RETAIL C  - STORY GROUND,Mixing/Well-Stirred
RoomAir Model,ZONE RETAIL RETAIL C END_A - STORY GROUND,Mixing/Well-Stirred
! <AirflowNetwork Model:Control>, No Multizone or Distribution/Multizone with Distribution/Multizone without Distribution/Multizone with Distribution only during Fan Operation
AirflowNetwork Model:Control,NoMultizoneOrDistribution
! <Zone Volume Capacitance Multiplier>, Sensible Heat Capacity Multiplier, Moisture Capacity Multiplier, Carbon Dioxide Capacity Multiplier, Generic Contaminant Capacity Multiplier
Zone Volume Capacitance Multiplier,   1.000 ,   1.000,   1.000,   1.000
! <Load Timesteps in Zone Design Calculation Averaging Window>, Value
 Load Timesteps in Zone Design Calculation Averaging Window,    6
! <Heating Sizing Factor Information>, Sizing Factor ID, Value
 Heating Sizing Factor Information, Global,   1.2500    
 Heating Sizing Factor Information, Zone ZONE RETAIL BACK_SPACE A  - STORY GROUND,   1.2500    
 Heating Sizing Factor Information, Zone ZONE RETAIL BACK_SPACE A END_B - STORY GROUND,   1.2500    
 Heating Sizing Factor Information, Zone ZONE RETAIL BACK_SPACE B  - STORY GROUND,   1.2500    
 Heating Sizing Factor Information, Zone ZONE RETAIL BACK_SPACE B END_B - STORY GROUND,   1.2500    
 Heating Sizing Factor Information, Zone ZONE RETAIL BACK_SPACE C  - STORY GROUND,   1.2500    
 Heating Sizing Factor Information, Zone ZONE RETAIL BACK_SPACE C END_B - STORY GROUND,   1.2500    
 Heating Sizing Factor Information, Zone ZONE RETAIL ENTRY A  - STORY GROUND,   1.2500    
 Heating Sizing Factor Information, Zone ZONE RETAIL ENTRY B  - STORY GROUND,   1.2500    
 Heating Sizing Factor Information, Zone ZONE RETAIL ENTRY C  - STORY GROUND,   1.2500    
 Heating Sizing Factor Information, Zone ZONE RETAIL POINT_OF_SALE A  - STORY GROUND,   1.2500    
 Heating Sizing Factor Information, Zone ZONE RETAIL POINT_OF_SALE B  - STORY GROUND,   1.2500    
 Heating Sizing Factor Information, Zone ZONE RETAIL POINT_OF_SALE C  - STORY GROUND,   1.2500    
 Heating Sizing Factor Information, Zone ZONE RETAIL RETAIL A  - STORY GROUND,   1.2500    
 Heating Sizing Factor Information, Zone ZONE RETAIL RETAIL A END_A - STORY GROUND,   1.2500    
 Heating Sizing Factor Information, Zone ZONE RETAIL RETAIL B  - STORY GROUND,   1.2500    
 Heating Sizing Factor Information, Zone ZONE RETAIL RETAIL B END_A - STORY GROUND,   1.2500    
 Heating Sizing Factor Information, Zone ZONE RETAIL RETAIL C  - STORY GROUND,   1.2500    
 Heating Sizing Factor Information, Zone ZONE RETAIL RETAIL C END_A - STORY GROUND,   1.2500    
! <Cooling Sizing Factor Information>, Sizing Factor ID, Value
 Cooling Sizing Factor Information, Global,   1.1500    
 Cooling Sizing Factor Information, Zone ZONE RETAIL BACK_SPACE A  - STORY GROUND,   1.1500    
 Cooling Sizing Factor Information, Zone ZONE RETAIL BACK_SPACE A END_B - STORY GROUND,   1.1500    
 Cooling Sizing Factor Information, Zone ZONE RETAIL BACK_SPACE B  - STORY GROUND,   1.1500    
 Cooling Sizing Factor Information, Zone ZONE RETAIL BACK_SPACE B END_B - STORY GROUND,   1.1500    
 Cooling Sizing Factor Information, Zone ZONE RETAIL BACK_SPACE C  - STORY GROUND,   1.1500    
 Cooling Sizing Factor Information, Zone ZONE RETAIL BACK_SPACE C END_B - STORY GROUND,   1.1500    
 Cooling Sizing Factor Information, Zone ZONE RETAIL ENTRY A  - STORY GROUND,   1.1500    
 Cooling Sizing Factor Information, Zone ZONE RETAIL ENTRY B  - STORY GROUND,   1.1500    
 Cooling Sizing Factor Information, Zone ZONE RETAIL ENTRY C  - STORY GROUND,   1.1500    
 Cooling Sizing Factor Information, Zone ZONE RETAIL POINT_OF_SALE A  - STORY GROUND,   1.1500    
 Cooling Sizing Factor Information, Zone ZONE RETAIL POINT_OF_SALE B  - STORY GROUND,   1.1500    
 Cooling Sizing Factor Information, Zone ZONE RETAIL POINT_OF_SALE C  - STORY GROUND,   1.1500    
 Cooling Sizing Factor Information, Zone ZONE RETAIL RETAIL A  - STORY GROUND,   1.1500    
 Cooling Sizing Factor Information, Zone ZONE RETAIL RETAIL A END_A - STORY GROUND,   1.1500    
 Cooling Sizing Factor Information, Zone ZONE RETAIL RETAIL B  - STORY GROUND,   1.1500    
 Cooling Sizing Factor Information, Zone ZONE RETAIL RETAIL B END_A - STORY GROUND,   1.1500    
 Cooling Sizing Factor Information, Zone ZONE RETAIL RETAIL C  - STORY GROUND,   1.1500    
 Cooling Sizing Factor Information, Zone ZONE RETAIL RETAIL C END_A - STORY GROUND,   1.1500    
! <Zone Sizing Information>, Zone Name, Load Type, Calc Des Load {W}, User Des Load {W}, Calc Des Air Flow Rate {m3/s}, User Des Air Flow Rate {m3/s}, Design Day Name, Date/Time of Peak, Temperature at Peak {C}, Humidity Ratio at Peak {kgWater/kgDryAir}, Floor Area {m2}, # Occupants, Calc Outdoor Air Flow Rate {m3/s}, Calc DOAS Heat Addition Rate {W}
 Zone Sizing Information, ZONE RETAIL BACK_SPACE A  - STORY GROUND, Cooling, 2146.86029, 2468.88933, 0.15599, 0.17939, CLIMATE ZONE 3 ANN CLG .4% CONDNS DB=>MWB, 8/21 13:30:00, 27.51500, 9.30032E-003, 47.90322, 1.54688, 4.74529E-002, 0.00000
 Zone Sizing Information, ZONE RETAIL BACK_SPACE A  - STORY GROUND, Heating, 3523.91913, 4404.89892, 0.15102, 0.18877, CLIMATE ZONE 3 ANN HTG 99.6% CONDNS DB, 1/21 22:10:00, 2.90000, 4.65595E-003, 47.90322, 1.54688, 4.74529E-002, 0.00000
 Zone Sizing Information, ZONE RETAIL BACK_SPACE A END_B - STORY GROUND, Cooling, 1389.61794, 1598.06063, 0.10097, 0.11612, CLIMATE ZONE 3 ANN CLG .4% CONDNS DB=>MWB, 8/21 11:00:00, 25.99800, 9.30032E-003, 20.90318, 0.67500, 2.07067E-002, 0.00000
 Zone Sizing Information, ZONE RETAIL BACK_SPACE A END_B - STORY GROUND, Heating, 2524.39451, 3155.49314, 0.10817, 0.13521, CLIMATE ZONE 3 ANN HTG 99.6% CONDNS DB, 1/21 15:00:00, 2.90000, 4.65595E-003, 20.90318, 0.67500, 2.07067E-002, 0.00000
 Zone Sizing Information, ZONE RETAIL BACK_SPACE B  - STORY GROUND, Cooling, 16362.23821, 18816.57394, 1.11830, 1.28605, CLIMATE ZONE 3 ANN CLG .4% CONDNS DB=>MWB, 8/21 07:00:00, 20.96600, 9.30032E-003, 648.08723, 20.92786, 0.64200, 0.00000
 Zone Sizing Information, ZONE RETAIL BACK_SPACE B  - STORY GROUND, Heating, 18032.88238, 22541.10297, 0.77293, 0.96616, CLIMATE ZONE 3 ANN HTG 99.6% CONDNS DB, 1/21 07:40:00, 2.90000, 4.65595E-003, 648.08723, 20.92786, 0.64200, 0.00000
 Zone Sizing Information, ZONE RETAIL BACK_SPACE B END_B - STORY GROUND, Cooling, 13772.75925, 15838.67314, 1.00075, 1.15086, CLIMATE ZONE 3 ANN CLG .4% CONDNS DB=>MWB, 8/21 09:40:00, 24.46867, 9.30032E-003, 282.80115, 9.13214, 0.28014, 0.00000
 Zone Sizing Information, ZONE RETAIL BACK_SPACE B END_B - STORY GROUND, Heating, 20737.15512, 25921.44391, 0.88868, 1.11085, CLIMATE ZONE 3 ANN HTG 99.6% CONDNS DB, 1/21 17:10:00, 2.90000, 4.65595E-003, 282.80115, 9.13214, 0.28014, 0.00000
 Zone Sizing Information, ZONE RETAIL BACK_SPACE C  - STORY GROUND, Cooling, 1220.33697, 1403.38752, 8.86707E-002, 0.10197, CLIMATE ZONE 3 ANN CLG .4% CONDNS DB=>MWB, 8/21 14:20:00, 27.70000, 9.30032E-003, 47.90322, 1.54688, 4.74529E-002, 0.00000
 Zone Sizing Information, ZONE RETAIL BACK_SPACE C  - STORY GROUND, Heating, 3522.27652, 4402.84565, 0.15095, 0.18868, CLIMATE ZONE 3 ANN HTG 99.6% CONDNS DB, 1/21 15:00:00, 2.90000, 4.65595E-003, 47.90322, 1.54688, 4.74529E-002, 0.00000
 Zone Sizing Information, ZONE RETAIL BACK_SPACE C END_B - STORY GROUND, Cooling, 1155.91848, 1329.30625, 8.39909E-002, 9.65896E-002, CLIMATE ZONE 3 ANN CLG .4% CONDNS DB=>MWB, 8/21 10:10:00, 25.07300, 9.30032E-003, 20.90318, 0.67500, 2.07067E-002, 0.00000
 Zone Sizing Information, ZONE RETAIL BACK_SPACE C END_B - STORY GROUND, Heating, 2523.65922, 3154.57403, 0.10814, 0.13517, CLIMATE ZONE 3 ANN HTG 99.6% CONDNS DB, 1/21 11:00:00, 2.90000, 4.65595E-003, 20.90318, 0.67500, 2.07067E-002, 0.00000
 Zone Sizing Information, ZONE RETAIL ENTRY A  - STORY GROUND, Cooling, 863.90595, 993.49184, 6.18847E-002, 7.11674E-002, CLIMATE ZONE 3 ANN CLG .4% CONDNS DB=>MWB, 8/21 07:00:00, 20.96600, 9.30032E-003, 2.16059, 0.76769, 8.72740E-003, 0.00000
 Zone Sizing Information, ZONE RETAIL ENTRY A  - STORY GROUND, Heating, 111.28515, 139.10643, 4.77024E-003, 8.72740E-003, CLIMATE ZONE 3 ANN HTG 99.6% CONDNS DB, 1/21 12:20:00, 2.90000, 4.65595E-003, 2.16059, 0.76769, 8.72740E-003, 0.00000
 Zone Sizing Information, ZONE RETAIL ENTRY B  - STORY GROUND, Cooling, 13311.56640, 15308.30137, 0.95437, 1.09753, CLIMATE ZONE 3 ANN CLG .4% CONDNS DB=>MWB, 8/21 07:00:00, 20.96600, 9.30032E-003, 29.23079, 10.38619, 0.11807, 0.00000
 Zone Sizing Information, ZONE RETAIL ENTRY B  - STORY GROUND, Heating, 0.00000, 0.00000, 0.00000, 0.11807, CLIMATE ZONE 3 ANN HTG 99.6% CONDNS DB, , 2.90000, 4.65595E-003, 29.23079, 10.38619, 0.11807, 0.00000
 Zone Sizing Information, ZONE RETAIL ENTRY C  - STORY GROUND, Cooling, 870.41328, 1000.97527, 6.23578E-002, 7.17115E-002, CLIMATE ZONE 3 ANN CLG .4% CONDNS DB=>MWB, 8/21 07:00:00, 20.96600, 9.30032E-003, 2.16059, 0.76769, 8.72740E-003, 0.00000
 Zone Sizing Information, ZONE RETAIL ENTRY C  - STORY GROUND, Heating, 111.12929, 138.91162, 4.76356E-003, 8.72740E-003, CLIMATE ZONE 3 ANN HTG 99.6% CONDNS DB, 1/21 06:00:00, 2.90000, 4.65595E-003, 2.16059, 0.76769, 8.72740E-003, 0.00000
 Zone Sizing Information, ZONE RETAIL POINT_OF_SALE A  - STORY GROUND, Cooling, 2875.71102, 3307.06767, 0.19595, 0.22534, CLIMATE ZONE 3 ANN CLG .4% CONDNS DB=>MWB, 8/21 07:00:00, 20.96600, 9.30032E-003, 27.29819, 9.69950, 0.11027, 0.00000
 Zone Sizing Information, ZONE RETAIL POINT_OF_SALE A  - STORY GROUND, Heating, 1294.22550, 1617.78187, 5.54750E-002, 0.11027, CLIMATE ZONE 3 ANN HTG 99.6% CONDNS DB, 1/21 16:00:00, 2.90000, 4.65595E-003, 27.29819, 9.69950, 0.11027, 0.00000
 Zone Sizing Information, ZONE RETAIL POINT_OF_SALE B  - STORY GROUND, Cooling, 34792.46388, 40011.33346, 2.32237, 2.67072, CLIMATE ZONE 3 ANN CLG .4% CONDNS DB=>MWB, 8/21 07:00:00, 20.96600, 9.30032E-003, 369.31985, 131.22550, 1.49182, 0.00000
 Zone Sizing Information, ZONE RETAIL POINT_OF_SALE B  - STORY GROUND, Heating, 1402.60015, 1753.25019, 6.01277E-002, 1.49182, CLIMATE ZONE 3 ANN HTG 99.6% CONDNS DB, 1/21 00:10:00, 2.90000, 4.65595E-003, 369.31985, 131.22550, 1.49182, 0.00000
 Zone Sizing Information, ZONE RETAIL POINT_OF_SALE C  - STORY GROUND, Cooling, 2911.63462, 3348.37982, 0.19840, 0.22816, CLIMATE ZONE 3 ANN CLG .4% CONDNS DB=>MWB, 8/21 07:00:00, 20.96600, 9.30032E-003, 27.29819, 9.69950, 0.11027, 0.00000
 Zone Sizing Information, ZONE RETAIL POINT_OF_SALE C  - STORY GROUND, Heating, 1293.27157, 1616.58946, 5.54341E-002, 0.11027, CLIMATE ZONE 3 ANN HTG 99.6% CONDNS DB, 1/21 00:10:00, 2.90000, 4.65595E-003, 27.29819, 9.69950, 0.11027, 0.00000
 Zone Sizing Information, ZONE RETAIL RETAIL A  - STORY GROUND, Cooling, 33147.27015, 38119.36067, 2.23865, 2.57444, CLIMATE ZONE 3 ANN CLG .4% CONDNS DB=>MWB, 8/21 07:00:00, 20.96600, 9.30032E-003, 296.32925, 105.29073, 0.30107, 0.00000
 Zone Sizing Information, ZONE RETAIL RETAIL A  - STORY GROUND, Heating, 13286.00664, 16607.50830, 0.56948, 0.71185, CLIMATE ZONE 3 ANN HTG 99.6% CONDNS DB, 1/21 18:00:00, 2.90000, 4.65595E-003, 296.32925, 105.29073, 0.30107, 0.00000
 Zone Sizing Information, ZONE RETAIL RETAIL A END_A - STORY GROUND, Cooling, 2713.52823, 3120.55746, 0.19723, 0.22682, CLIMATE ZONE 3 ANN CLG .4% CONDNS DB=>MWB, 8/21 16:10:00, 27.15733, 9.30031E-003, 20.90318, 7.42725, 2.12376E-002, 0.00000
 Zone Sizing Information, ZONE RETAIL RETAIL A END_A - STORY GROUND, Heating, 1920.86073, 2401.07591, 8.23228E-002, 0.10290, CLIMATE ZONE 3 ANN HTG 99.6% CONDNS DB, 1/21 09:50:00, 2.90000, 4.65595E-003, 20.90318, 7.42725, 2.12376E-002, 0.00000
 Zone Sizing Information, ZONE RETAIL RETAIL B  - STORY GROUND, Cooling, 346510.46814, 398487.03836, 22.92810, 26.36732, CLIMATE ZONE 3 ANN CLG .4% CONDNS DB=>MWB, 8/21 07:00:00, 20.96600, 9.30032E-003, 4009.06650, 1424.48821, 4.07321, 0.00000
 Zone Sizing Information, ZONE RETAIL RETAIL B  - STORY GROUND, Heating, 10690.85047, 13363.56309, 0.45830, 4.07321, CLIMATE ZONE 3 ANN HTG 99.6% CONDNS DB, 1/21 02:00:00, 2.90000, 4.65595E-003, 4009.06650, 1424.48821, 4.07321, 0.00000
 Zone Sizing Information, ZONE RETAIL RETAIL B END_A - STORY GROUND, Cooling, 31673.62545, 36424.66927, 2.13931, 2.46021, CLIMATE ZONE 3 ANN CLG .4% CONDNS DB=>MWB, 8/21 07:00:00, 20.96600, 9.30032E-003, 282.80115, 100.48397, 0.28733, 0.00000
 Zone Sizing Information, ZONE RETAIL RETAIL B END_A - STORY GROUND, Heating, 12710.61529, 15888.26911, 0.54482, 0.68102, CLIMATE ZONE 3 ANN HTG 99.6% CONDNS DB, 1/21 09:10:00, 2.90000, 4.65595E-003, 282.80115, 100.48397, 0.28733, 0.00000
 Zone Sizing Information, ZONE RETAIL RETAIL C  - STORY GROUND, Cooling, 33508.93733, 38535.27793, 2.26472, 2.60442, CLIMATE ZONE 3 ANN CLG .4% CONDNS DB=>MWB, 8/21 07:00:00, 20.96600, 9.30032E-003, 296.32925, 105.29073, 0.30107, 0.00000
 Zone Sizing Information, ZONE RETAIL RETAIL C  - STORY GROUND, Heating, 13276.00971, 16595.01213, 0.56905, 0.71132, CLIMATE ZONE 3 ANN HTG 99.6% CONDNS DB, 1/21 20:20:00, 2.90000, 4.65595E-003, 296.32925, 105.29073, 0.30107, 0.00000
 Zone Sizing Information, ZONE RETAIL RETAIL C END_A - STORY GROUND, Cooling, 2511.83675, 2888.61226, 0.18257, 0.20996, CLIMATE ZONE 3 ANN CLG .4% CONDNS DB=>MWB, 8/21 17:00:00, 26.66400, 9.30032E-003, 20.90318, 7.42725, 2.12376E-002, 0.00000
 Zone Sizing Information, ZONE RETAIL RETAIL C END_A - STORY GROUND, Heating, 1920.08564, 2400.10704, 8.22895E-002, 0.10286, CLIMATE ZONE 3 ANN HTG 99.6% CONDNS DB, 1/21 20:20:00, 2.90000, 4.65595E-003, 20.90318, 7.42725, 2.12376E-002, 0.00000
! <System Sizing Information>, System Name, Field Description, Value
 System Sizing Information, ZONE RETAIL BACK_SPACE A  - STORY GROUND PSZ-AC, Calculated Cooling Design Air Flow Rate [m3/s], 0.17939
 System Sizing Information, ZONE RETAIL BACK_SPACE A  - STORY GROUND PSZ-AC, User Cooling Design Air Flow Rate [m3/s], 0.17939
 System Sizing Information, ZONE RETAIL BACK_SPACE A  - STORY GROUND PSZ-AC, Calculated Heating Design Air Flow Rate [m3/s], 0.18877
 System Sizing Information, ZONE RETAIL BACK_SPACE A  - STORY GROUND PSZ-AC, User Heating Design Air Flow Rate [m3/s], 0.18877
 System Sizing Information, ZONE RETAIL BACK_SPACE A END_B - STORY GROUND PSZ-AC, Calculated Cooling Design Air Flow Rate [m3/s], 0.11612
 System Sizing Information, ZONE RETAIL BACK_SPACE A END_B - STORY GROUND PSZ-AC, User Cooling Design Air Flow Rate [m3/s], 0.11612
 System Sizing Information, ZONE RETAIL BACK_SPACE A END_B - STORY GROUND PSZ-AC, Calculated Heating Design Air Flow Rate [m3/s], 0.13521
 System Sizing Information, ZONE RETAIL BACK_SPACE A END_B - STORY GROUND PSZ-AC, User Heating Design Air Flow Rate [m3/s], 0.13521
 System Sizing Information, ZONE RETAIL BACK_SPACE B  - STORY GROUND PSZ-AC, Calculated Cooling Design Air Flow Rate [m3/s], 1.28605
 System Sizing Information, ZONE RETAIL BACK_SPACE B  - STORY GROUND PSZ-AC, User Cooling Design Air Flow Rate [m3/s], 1.28605
 System Sizing Information, ZONE RETAIL BACK_SPACE B  - STORY GROUND PSZ-AC, Calculated Heating Design Air Flow Rate [m3/s], 0.96616
 System Sizing Information, ZONE RETAIL BACK_SPACE B  - STORY GROUND PSZ-AC, User Heating Design Air Flow Rate [m3/s], 0.96616
 System Sizing Information, ZONE RETAIL BACK_SPACE B END_B - STORY GROUND PSZ-AC, Calculated Cooling Design Air Flow Rate [m3/s], 1.15086
 System Sizing Information, ZONE RETAIL BACK_SPACE B END_B - STORY GROUND PSZ-AC, User Cooling Design Air Flow Rate [m3/s], 1.15086
 System Sizing Information, ZONE RETAIL BACK_SPACE B END_B - STORY GROUND PSZ-AC, Calculated Heating Design Air Flow Rate [m3/s], 1.11085
 System Sizing Information, ZONE RETAIL BACK_SPACE B END_B - STORY GROUND PSZ-AC, User Heating Design Air Flow Rate [m3/s], 1.11085
 System Sizing Information, ZONE RETAIL BACK_SPACE C  - STORY GROUND PSZ-AC, Calculated Cooling Design Air Flow Rate [m3/s], 0.10197
 System Sizing Information, ZONE RETAIL BACK_SPACE C  - STORY GROUND PSZ-AC, User Cooling Design Air Flow Rate [m3/s], 0.10197
 System Sizing Information, ZONE RETAIL BACK_SPACE C  - STORY GROUND PSZ-AC, Calculated Heating Design Air Flow Rate [m3/s], 0.18868
 System Sizing Information, ZONE RETAIL BACK_SPACE C  - STORY GROUND PSZ-AC, User Heating Design Air Flow Rate [m3/s], 0.18868
 System Sizing Information, ZONE RETAIL BACK_SPACE C END_B - STORY GROUND PSZ-AC, Calculated Cooling Design Air Flow Rate [m3/s], 9.65896E-002
 System Sizing Information, ZONE RETAIL BACK_SPACE C END_B - STORY GROUND PSZ-AC, User Cooling Design Air Flow Rate [m3/s], 9.65896E-002
 System Sizing Information, ZONE RETAIL BACK_SPACE C END_B - STORY GROUND PSZ-AC, Calculated Heating Design Air Flow Rate [m3/s], 0.13517
 System Sizing Information, ZONE RETAIL BACK_SPACE C END_B - STORY GROUND PSZ-AC, User Heating Design Air Flow Rate [m3/s], 0.13517
 System Sizing Information, ZONE RETAIL ENTRY A  - STORY GROUND PSZ-AC, Calculated Cooling Design Air Flow Rate [m3/s], 7.11674E-002
 System Sizing Information, ZONE RETAIL ENTRY A  - STORY GROUND PSZ-AC, User Cooling Design Air Flow Rate [m3/s], 7.11674E-002
 System Sizing Information, ZONE RETAIL ENTRY A  - STORY GROUND PSZ-AC, Calculated Heating Design Air Flow Rate [m3/s], 8.72740E-003
 System Sizing Information, ZONE RETAIL ENTRY A  - STORY GROUND PSZ-AC, User Heating Design Air Flow Rate [m3/s], 8.72740E-003
 System Sizing Information, ZONE RETAIL ENTRY B  - STORY GROUND PSZ-AC, Calculated Cooling Design Air Flow Rate [m3/s], 1.09753
 System Sizing Information, ZONE RETAIL ENTRY B  - STORY GROUND PSZ-AC, User Cooling Design Air Flow Rate [m3/s], 1.09753
 System Sizing Information, ZONE RETAIL ENTRY B  - STORY GROUND PSZ-AC, Calculated Heating Design Air Flow Rate [m3/s], 0.11807
 System Sizing Information, ZONE RETAIL ENTRY B  - STORY GROUND PSZ-AC, User Heating Design Air Flow Rate [m3/s], 0.11807
 System Sizing Information, ZONE RETAIL ENTRY C  - STORY GROUND PSZ-AC, Calculated Cooling Design Air Flow Rate [m3/s], 7.17115E-002
 System Sizing Information, ZONE RETAIL ENTRY C  - STORY GROUND PSZ-AC, User Cooling Design Air Flow Rate [m3/s], 7.17115E-002
 System Sizing Information, ZONE RETAIL ENTRY C  - STORY GROUND PSZ-AC, Calculated Heating Design Air Flow Rate [m3/s], 8.72740E-003
 System Sizing Information, ZONE RETAIL ENTRY C  - STORY GROUND PSZ-AC, User Heating Design Air Flow Rate [m3/s], 8.72740E-003
 System Sizing Information, ZONE RETAIL POINT_OF_SALE A  - STORY GROUND PSZ-AC, Calculated Cooling Design Air Flow Rate [m3/s], 0.22534
 System Sizing Information, ZONE RETAIL POINT_OF_SALE A  - STORY GROUND PSZ-AC, User Cooling Design Air Flow Rate [m3/s], 0.22534
 System Sizing Information, ZONE RETAIL POINT_OF_SALE A  - STORY GROUND PSZ-AC, Calculated Heating Design Air Flow Rate [m3/s], 0.11027
 System Sizing Information, ZONE RETAIL POINT_OF_SALE A  - STORY GROUND PSZ-AC, User Heating Design Air Flow Rate [m3/s], 0.11027
 System Sizing Information, ZONE RETAIL POINT_OF_SALE B  - STORY GROUND PSZ-AC, Calculated Cooling Design Air Flow Rate [m3/s], 2.67072
 System Sizing Information, ZONE RETAIL POINT_OF_SALE B  - STORY GROUND PSZ-AC, User Cooling Design Air Flow Rate [m3/s], 2.67072
 System Sizing Information, ZONE RETAIL POINT_OF_SALE B  - STORY GROUND PSZ-AC, Calculated Heating Design Air Flow Rate [m3/s], 1.49182
 System Sizing Information, ZONE RETAIL POINT_OF_SALE B  - STORY GROUND PSZ-AC, User Heating Design Air Flow Rate [m3/s], 1.49182
 System Sizing Information, ZONE RETAIL POINT_OF_SALE C  - STORY GROUND PSZ-AC, Calculated Cooling Design Air Flow Rate [m3/s], 0.22816
 System Sizing Information, ZONE RETAIL POINT_OF_SALE C  - STORY GROUND PSZ-AC, User Cooling Design Air Flow Rate [m3/s], 0.22816
 System Sizing Information, ZONE RETAIL POINT_OF_SALE C  - STORY GROUND PSZ-AC, Calculated Heating Design Air Flow Rate [m3/s], 0.11027
 System Sizing Information, ZONE RETAIL POINT_OF_SALE C  - STORY GROUND PSZ-AC, User Heating Design Air Flow Rate [m3/s], 0.11027
 System Sizing Information, ZONE RETAIL RETAIL A  - STORY GROUND PSZ-AC, Calculated Cooling Design Air Flow Rate [m3/s], 2.57444
 System Sizing Information, ZONE RETAIL RETAIL A  - STORY GROUND PSZ-AC, User Cooling Design Air Flow Rate [m3/s], 2.57444
 System Sizing Information, ZONE RETAIL RETAIL A  - STORY GROUND PSZ-AC, Calculated Heating Design Air Flow Rate [m3/s], 0.71185
 System Sizing Information, ZONE RETAIL RETAIL A  - STORY GROUND PSZ-AC, User Heating Design Air Flow Rate [m3/s], 0.71185
 System Sizing Information, ZONE RETAIL RETAIL A END_A - STORY GROUND PSZ-AC, Calculated Cooling Design Air Flow Rate [m3/s], 0.22682
 System Sizing Information, ZONE RETAIL RETAIL A END_A - STORY GROUND PSZ-AC, User Cooling Design Air Flow Rate [m3/s], 0.22682
 System Sizing Information, ZONE RETAIL RETAIL A END_A - STORY GROUND PSZ-AC, Calculated Heating Design Air Flow Rate [m3/s], 0.10290
 System Sizing Information, ZONE RETAIL RETAIL A END_A - STORY GROUND PSZ-AC, User Heating Design Air Flow Rate [m3/s], 0.10290
 System Sizing Information, ZONE RETAIL RETAIL B  - STORY GROUND PSZ-AC, Calculated Cooling Design Air Flow Rate [m3/s], 26.36732
 System Sizing Information, ZONE RETAIL RETAIL B  - STORY GROUND PSZ-AC, User Cooling Design Air Flow Rate [m3/s], 26.36732
 System Sizing Information, ZONE RETAIL RETAIL B  - STORY GROUND PSZ-AC, Calculated Heating Design Air Flow Rate [m3/s], 4.07321
 System Sizing Information, ZONE RETAIL RETAIL B  - STORY GROUND PSZ-AC, User Heating Design Air Flow Rate [m3/s], 4.07321
 System Sizing Information, ZONE RETAIL RETAIL B END_A - STORY GROUND PSZ-AC, Calculated Cooling Design Air Flow Rate [m3/s], 2.60188
 System Sizing Information, ZONE RETAIL RETAIL B END_A - STORY GROUND PSZ-AC, User Cooling Design Air Flow Rate [m3/s], 2.60188
 System Sizing Information, ZONE RETAIL RETAIL B END_A - STORY GROUND PSZ-AC, Calculated Heating Design Air Flow Rate [m3/s], 0.68102
 System Sizing Information, ZONE RETAIL RETAIL B END_A - STORY GROUND PSZ-AC, User Heating Design Air Flow Rate [m3/s], 0.68102
 System Sizing Information, ZONE RETAIL RETAIL C  - STORY GROUND PSZ-AC, Calculated Cooling Design Air Flow Rate [m3/s], 2.60442
 System Sizing Information, ZONE RETAIL RETAIL C  - STORY GROUND PSZ-AC, User Cooling Design Air Flow Rate [m3/s], 2.60442
 System Sizing Information, ZONE RETAIL RETAIL C  - STORY GROUND PSZ-AC, Calculated Heating Design Air Flow Rate [m3/s], 0.71132
 System Sizing Information, ZONE RETAIL RETAIL C  - STORY GROUND PSZ-AC, User Heating Design Air Flow Rate [m3/s], 0.71132
 System Sizing Information, ZONE RETAIL RETAIL C END_A - STORY GROUND PSZ-AC, Calculated Cooling Design Air Flow Rate [m3/s], 0.20996
 System Sizing Information, ZONE RETAIL RETAIL C END_A - STORY GROUND PSZ-AC, User Cooling Design Air Flow Rate [m3/s], 0.20996
 System Sizing Information, ZONE RETAIL RETAIL C END_A - STORY GROUND PSZ-AC, Calculated Heating Design Air Flow Rate [m3/s], 0.10286
 System Sizing Information, ZONE RETAIL RETAIL C END_A - STORY GROUND PSZ-AC, User Heating Design Air Flow Rate [m3/s], 0.10286
! <Component Sizing Information>, Component Type, Component Name, Input Field Description, Value
 Component Sizing Information, AirTerminal:SingleDuct:Uncontrolled, ZONE RETAIL BACK_SPACE A  - STORY GROUND PSZ-AC DIFFUSER, Design Size Maximum Air Flow Rate [m3/s], 0.18877
 Component Sizing Information, AirTerminal:SingleDuct:Uncontrolled, ZONE RETAIL BACK_SPACE A END_B - STORY GROUND PSZ-AC DIFFUSER, Design Size Maximum Air Flow Rate [m3/s], 0.13521
 Component Sizing Information, AirTerminal:SingleDuct:Uncontrolled, ZONE RETAIL BACK_SPACE B  - STORY GROUND PSZ-AC DIFFUSER, Design Size Maximum Air Flow Rate [m3/s], 1.28605
 Component Sizing Information, AirTerminal:SingleDuct:Uncontrolled, ZONE RETAIL BACK_SPACE B END_B - STORY GROUND PSZ-AC DIFFUSER, Design Size Maximum Air Flow Rate [m3/s], 1.15086
 Component Sizing Information, AirTerminal:SingleDuct:Uncontrolled, ZONE RETAIL BACK_SPACE C  - STORY GROUND PSZ-AC DIFFUSER, Design Size Maximum Air Flow Rate [m3/s], 0.18868
 Component Sizing Information, AirTerminal:SingleDuct:Uncontrolled, ZONE RETAIL BACK_SPACE C END_B - STORY GROUND PSZ-AC DIFFUSER, Design Size Maximum Air Flow Rate [m3/s], 0.13517
 Component Sizing Information, AirTerminal:SingleDuct:Uncontrolled, ZONE RETAIL ENTRY A  - STORY GROUND PSZ-AC DIFFUSER, Design Size Maximum Air Flow Rate [m3/s], 7.11674E-002
 Component Sizing Information, AirTerminal:SingleDuct:Uncontrolled, ZONE RETAIL ENTRY B  - STORY GROUND PSZ-AC DIFFUSER, Design Size Maximum Air Flow Rate [m3/s], 1.09753
 Component Sizing Information, AirTerminal:SingleDuct:Uncontrolled, ZONE RETAIL ENTRY C  - STORY GROUND PSZ-AC DIFFUSER, Design Size Maximum Air Flow Rate [m3/s], 7.17115E-002
 Component Sizing Information, AirTerminal:SingleDuct:Uncontrolled, ZONE RETAIL POINT_OF_SALE A  - STORY GROUND PSZ-AC DIFFUSER, Design Size Maximum Air Flow Rate [m3/s], 0.22534
 Component Sizing Information, AirTerminal:SingleDuct:Uncontrolled, ZONE RETAIL POINT_OF_SALE B  - STORY GROUND PSZ-AC DIFFUSER, Design Size Maximum Air Flow Rate [m3/s], 2.67072
 Component Sizing Information, AirTerminal:SingleDuct:Uncontrolled, ZONE RETAIL POINT_OF_SALE C  - STORY GROUND PSZ-AC DIFFUSER, Design Size Maximum Air Flow Rate [m3/s], 0.22816
 Component Sizing Information, AirTerminal:SingleDuct:Uncontrolled, ZONE RETAIL RETAIL A  - STORY GROUND PSZ-AC DIFFUSER, Design Size Maximum Air Flow Rate [m3/s], 2.57444
 Component Sizing Information, AirTerminal:SingleDuct:Uncontrolled, ZONE RETAIL RETAIL A END_A - STORY GROUND PSZ-AC DIFFUSER, Design Size Maximum Air Flow Rate [m3/s], 0.22682
 Component Sizing Information, AirTerminal:SingleDuct:Uncontrolled, ZONE RETAIL RETAIL B  - STORY GROUND PSZ-AC DIFFUSER, Design Size Maximum Air Flow Rate [m3/s], 26.36732
 Component Sizing Information, AirTerminal:SingleDuct:Uncontrolled, ZONE RETAIL RETAIL B END_A - STORY GROUND PSZ-AC DIFFUSER, Design Size Maximum Air Flow Rate [m3/s], 2.46021
 Component Sizing Information, AirTerminal:SingleDuct:Uncontrolled, ZONE RETAIL RETAIL C  - STORY GROUND PSZ-AC DIFFUSER, Design Size Maximum Air Flow Rate [m3/s], 2.60442
 Component Sizing Information, AirTerminal:SingleDuct:Uncontrolled, ZONE RETAIL RETAIL C END_A - STORY GROUND PSZ-AC DIFFUSER, Design Size Maximum Air Flow Rate [m3/s], 0.20996
 Component Sizing Information, AirLoopHVAC, ZONE RETAIL BACK_SPACE A  - STORY GROUND PSZ-AC, Design Supply Air Flow Rate [m3/s], 0.18877
 Component Sizing Information, AirLoopHVAC, ZONE RETAIL BACK_SPACE A END_B - STORY GROUND PSZ-AC, Design Supply Air Flow Rate [m3/s], 0.13521
 Component Sizing Information, AirLoopHVAC, ZONE RETAIL BACK_SPACE B  - STORY GROUND PSZ-AC, Design Supply Air Flow Rate [m3/s], 1.28605
 Component Sizing Information, AirLoopHVAC, ZONE RETAIL BACK_SPACE B END_B - STORY GROUND PSZ-AC, Design Supply Air Flow Rate [m3/s], 1.15086
 Component Sizing Information, AirLoopHVAC, ZONE RETAIL BACK_SPACE C  - STORY GROUND PSZ-AC, Design Supply Air Flow Rate [m3/s], 0.18868
 Component Sizing Information, AirLoopHVAC, ZONE RETAIL BACK_SPACE C END_B - STORY GROUND PSZ-AC, Design Supply Air Flow Rate [m3/s], 0.13517
 Component Sizing Information, AirLoopHVAC, ZONE RETAIL ENTRY A  - STORY GROUND PSZ-AC, Design Supply Air Flow Rate [m3/s], 7.11674E-002
 Component Sizing Information, AirLoopHVAC, ZONE RETAIL ENTRY B  - STORY GROUND PSZ-AC, Design Supply Air Flow Rate [m3/s], 1.09753
 Component Sizing Information, AirLoopHVAC, ZONE RETAIL ENTRY C  - STORY GROUND PSZ-AC, Design Supply Air Flow Rate [m3/s], 7.17115E-002
 Component Sizing Information, AirLoopHVAC, ZONE RETAIL POINT_OF_SALE A  - STORY GROUND PSZ-AC, Design Supply Air Flow Rate [m3/s], 0.22534
 Component Sizing Information, AirLoopHVAC, ZONE RETAIL POINT_OF_SALE B  - STORY GROUND PSZ-AC, Design Supply Air Flow Rate [m3/s], 2.67072
 Component Sizing Information, AirLoopHVAC, ZONE RETAIL POINT_OF_SALE C  - STORY GROUND PSZ-AC, Design Supply Air Flow Rate [m3/s], 0.22816
 Component Sizing Information, AirLoopHVAC, ZONE RETAIL RETAIL A  - STORY GROUND PSZ-AC, Design Supply Air Flow Rate [m3/s], 2.57444
 Component Sizing Information, AirLoopHVAC, ZONE RETAIL RETAIL A END_A - STORY GROUND PSZ-AC, Design Supply Air Flow Rate [m3/s], 0.22682
 Component Sizing Information, AirLoopHVAC, ZONE RETAIL RETAIL B  - STORY GROUND PSZ-AC, Design Supply Air Flow Rate [m3/s], 26.36732
 Component Sizing Information, AirLoopHVAC, ZONE RETAIL RETAIL B END_A - STORY GROUND PSZ-AC, Design Supply Air Flow Rate [m3/s], 2.60188
 Component Sizing Information, AirLoopHVAC, ZONE RETAIL RETAIL C  - STORY GROUND PSZ-AC, Design Supply Air Flow Rate [m3/s], 2.60442
 Component Sizing Information, AirLoopHVAC, ZONE RETAIL RETAIL C END_A - STORY GROUND PSZ-AC, Design Supply Air Flow Rate [m3/s], 0.20996
!<Controller:MechanicalVentilation>,Name,Availability Schedule Name,Demand Controlled Ventilation {Yes/No},System Outdoor Air Method,Zone Maximum Outdoor Air Fraction,Number of Zones,Zone Name,DSOA Name,DSZAD Name
 Controller:MechanicalVentilation,CONTROLLER MECHANICAL VENTILATION 16,ALWAYS ON DISCRETE,No,ZoneSum,1.00,1,ZONE RETAIL BACK_SPACE A  - STORY GROUND,RETAIL BACK_SPACE VENTILATION,ZONE RETAIL BACK_SPACE A  - STORY GROUND DESIGN SPEC ZONE AIR DIST
 Controller:MechanicalVentilation,CONTROLLER MECHANICAL VENTILATION 11,ALWAYS ON DISCRETE,No,ZoneSum,1.00,1,ZONE RETAIL BACK_SPACE A END_B - STORY GROUND,RETAIL BACK_SPACE VENTILATION,ZONE RETAIL BACK_SPACE A END_B - STORY GROUND DESIGN SPEC ZONE AIR DIST
 Controller:MechanicalVentilation,CONTROLLER MECHANICAL VENTILATION 13,ALWAYS ON DISCRETE,No,ZoneSum,1.00,1,ZONE RETAIL BACK_SPACE B  - STORY GROUND,RETAIL BACK_SPACE VENTILATION,ZONE RETAIL BACK_SPACE B  - STORY GROUND DESIGN SPEC ZONE AIR DIST
 Controller:MechanicalVentilation,CONTROLLER MECHANICAL VENTILATION 7,ALWAYS ON DISCRETE,No,ZoneSum,1.00,1,ZONE RETAIL BACK_SPACE B END_B - STORY GROUND,RETAIL BACK_SPACE VENTILATION,ZONE RETAIL BACK_SPACE B END_B - STORY GROUND DESIGN SPEC ZONE AIR DIST
 Controller:MechanicalVentilation,CONTROLLER MECHANICAL VENTILATION 14,ALWAYS ON DISCRETE,No,ZoneSum,1.00,1,ZONE RETAIL BACK_SPACE C  - STORY GROUND,RETAIL BACK_SPACE VENTILATION,ZONE RETAIL BACK_SPACE C  - STORY GROUND DESIGN SPEC ZONE AIR DIST
 Controller:MechanicalVentilation,CONTROLLER MECHANICAL VENTILATION 4,ALWAYS ON DISCRETE,No,ZoneSum,1.00,1,ZONE RETAIL BACK_SPACE C END_B - STORY GROUND,RETAIL BACK_SPACE VENTILATION,ZONE RETAIL BACK_SPACE C END_B - STORY GROUND DESIGN SPEC ZONE AIR DIST
 Controller:MechanicalVentilation,CONTROLLER MECHANICAL VENTILATION 12,ALWAYS ON DISCRETE,No,ZoneSum,1.00,1,ZONE RETAIL ENTRY A  - STORY GROUND,RETAIL ENTRY VENTILATION,ZONE RETAIL ENTRY A  - STORY GROUND DESIGN SPEC ZONE AIR DIST
 Controller:MechanicalVentilation,CONTROLLER MECHANICAL VENTILATION 15,ALWAYS ON DISCRETE,No,ZoneSum,1.00,1,ZONE RETAIL ENTRY B  - STORY GROUND,RETAIL ENTRY VENTILATION,ZONE RETAIL ENTRY B  - STORY GROUND DESIGN SPEC ZONE AIR DIST
 Controller:MechanicalVentilation,CONTROLLER MECHANICAL VENTILATION 6,ALWAYS ON DISCRETE,No,ZoneSum,1.00,1,ZONE RETAIL ENTRY C  - STORY GROUND,RETAIL ENTRY VENTILATION,ZONE RETAIL ENTRY C  - STORY GROUND DESIGN SPEC ZONE AIR DIST
 Controller:MechanicalVentilation,CONTROLLER MECHANICAL VENTILATION 2,ALWAYS ON DISCRETE,No,ZoneSum,1.00,1,ZONE RETAIL POINT_OF_SALE A  - STORY GROUND,RETAIL POINT_OF_SALE VENTILATION,ZONE RETAIL POINT_OF_SALE A  - STORY GROUND DESIGN SPEC ZONE AIR DIST
 Controller:MechanicalVentilation,CONTROLLER MECHANICAL VENTILATION 17,ALWAYS ON DISCRETE,No,ZoneSum,1.00,1,ZONE RETAIL POINT_OF_SALE B  - STORY GROUND,RETAIL POINT_OF_SALE VENTILATION,ZONE RETAIL POINT_OF_SALE B  - STORY GROUND DESIGN SPEC ZONE AIR DIST
 Controller:MechanicalVentilation,CONTROLLER MECHANICAL VENTILATION 8,ALWAYS ON DISCRETE,No,ZoneSum,1.00,1,ZONE RETAIL POINT_OF_SALE C  - STORY GROUND,RETAIL POINT_OF_SALE VENTILATION,ZONE RETAIL POINT_OF_SALE C  - STORY GROUND DESIGN SPEC ZONE AIR DIST
 Controller:MechanicalVentilation,CONTROLLER MECHANICAL VENTILATION 3,ALWAYS ON DISCRETE,No,ZoneSum,1.00,1,ZONE RETAIL RETAIL A  - STORY GROUND,RETAIL RETAIL VENTILATION,ZONE RETAIL RETAIL A  - STORY GROUND DESIGN SPEC ZONE AIR DIST
 Controller:MechanicalVentilation,CONTROLLER MECHANICAL VENTILATION 1,ALWAYS ON DISCRETE,No,ZoneSum,1.00,1,ZONE RETAIL RETAIL A END_A - STORY GROUND,RETAIL RETAIL VENTILATION,ZONE RETAIL RETAIL A END_A - STORY GROUND DESIGN SPEC ZONE AIR DIST
 Controller:MechanicalVentilation,CONTROLLER MECHANICAL VENTILATION 18,ALWAYS ON DISCRETE,No,ZoneSum,1.00,1,ZONE RETAIL RETAIL B  - STORY GROUND,RETAIL RETAIL VENTILATION,ZONE RETAIL RETAIL B  - STORY GROUND DESIGN SPEC ZONE AIR DIST
 Controller:MechanicalVentilation,CONTROLLER MECHANICAL VENTILATION 5,ALWAYS ON DISCRETE,No,ZoneSum,1.00,1,ZONE RETAIL RETAIL B END_A - STORY GROUND,RETAIL RETAIL VENTILATION,ZONE RETAIL RETAIL B END_A - STORY GROUND DESIGN SPEC ZONE AIR DIST
 Controller:MechanicalVentilation,CONTROLLER MECHANICAL VENTILATION 9,ALWAYS ON DISCRETE,No,ZoneSum,1.00,1,ZONE RETAIL RETAIL C  - STORY GROUND,RETAIL RETAIL VENTILATION,ZONE RETAIL RETAIL C  - STORY GROUND DESIGN SPEC ZONE AIR DIST
 Controller:MechanicalVentilation,CONTROLLER MECHANICAL VENTILATION 10,ALWAYS ON DISCRETE,No,ZoneSum,1.00,1,ZONE RETAIL RETAIL C END_A - STORY GROUND,RETAIL RETAIL VENTILATION,ZONE RETAIL RETAIL C END_A - STORY GROUND DESIGN SPEC ZONE AIR DIST
 Component Sizing Information, Controller:OutdoorAir, ZONE RETAIL BACK_SPACE A  - STORY GROUND PSZ-AC OA SYS CONTROLLER, Maximum Outdoor Air Flow Rate [m3/s], 0.18877
 Component Sizing Information, Coil:Cooling:DX:SingleSpeed, ZONE RETAIL BACK_SPACE A  - STORY GROUND PSZ-AC 1SPD DX AC CLG COIL, Design Size Rated Air Flow Rate [m3/s], 0.18877
 Component Sizing Information, Coil:Cooling:DX:SingleSpeed, ZONE RETAIL BACK_SPACE A  - STORY GROUND PSZ-AC 1SPD DX AC CLG COIL, Design Size Gross Rated Total Cooling Capacity [W], 3261.38903
 Component Sizing Information, Coil:Cooling:DX:SingleSpeed, ZONE RETAIL BACK_SPACE A  - STORY GROUND PSZ-AC 1SPD DX AC CLG COIL, Design Size Gross Rated Sensible Heat Ratio, 0.78326
! <DX Cooling Coil Standard Rating Information>, Component Type, Component Name, Standard Rating (Net) Cooling Capacity {W}, Standard Rated Net COP {W/W}, EER {Btu/W-h}, SEER {Btu/W-h}, IEER {Btu/W-h}
 DX Cooling Coil Standard Rating Information, Coil:Cooling:DX:SingleSpeed, ZONE RETAIL BACK_SPACE A  - STORY GROUND PSZ-AC 1SPD DX AC CLG COIL, 3115.1, 2.53, 8.62, 9.91, 9.48
 Component Sizing Information, Coil:Heating:Fuel, ZONE RETAIL BACK_SPACE A  - STORY GROUND PSZ-AC GAS HTG COIL, Design Size Nominal Capacity [W], 5379.56334
 Component Sizing Information, Coil:Heating:Electric, ZONE RETAIL BACK_SPACE A  - STORY GROUND PSZ-AC ELECTRIC BACKUP HTG COIL, Design Size Nominal Capacity [W], 5379.56334
 Component Sizing Information, Fan:ConstantVolume, ZONE RETAIL BACK_SPACE A  - STORY GROUND PSZ-AC FAN, Design Size Maximum Flow Rate [m3/s], 0.18877
 Component Sizing Information, Controller:OutdoorAir, ZONE RETAIL BACK_SPACE A END_B - STORY GROUND PSZ-AC OA SYS CONTROLLER, Maximum Outdoor Air Flow Rate [m3/s], 0.13521
 Component Sizing Information, Coil:Cooling:DX:SingleSpeed, ZONE RETAIL BACK_SPACE A END_B - STORY GROUND PSZ-AC 1SPD DX AC CLG COIL, Design Size Rated Air Flow Rate [m3/s], 0.13521
 Component Sizing Information, Coil:Cooling:DX:SingleSpeed, ZONE RETAIL BACK_SPACE A END_B - STORY GROUND PSZ-AC 1SPD DX AC CLG COIL, Design Size Gross Rated Total Cooling Capacity [W], 2238.23297
 Component Sizing Information, Coil:Cooling:DX:SingleSpeed, ZONE RETAIL BACK_SPACE A END_B - STORY GROUND PSZ-AC 1SPD DX AC CLG COIL, Design Size Gross Rated Sensible Heat Ratio, 0.79866
 DX Cooling Coil Standard Rating Information, Coil:Cooling:DX:SingleSpeed, ZONE RETAIL BACK_SPACE A END_B - STORY GROUND PSZ-AC 1SPD DX AC CLG COIL, 2133.4, 2.51, 8.56, 9.83, 9.37
 Component Sizing Information, Coil:Heating:Fuel, ZONE RETAIL BACK_SPACE A END_B - STORY GROUND PSZ-AC GAS HTG COIL, Design Size Nominal Capacity [W], 3562.77496
 Component Sizing Information, Coil:Heating:Electric, ZONE RETAIL BACK_SPACE A END_B - STORY GROUND PSZ-AC ELECTRIC BACKUP HTG COIL, Design Size Nominal Capacity [W], 3562.77496
 Component Sizing Information, Fan:ConstantVolume, ZONE RETAIL BACK_SPACE A END_B - STORY GROUND PSZ-AC FAN, Design Size Maximum Flow Rate [m3/s], 0.13521
 Component Sizing Information, Controller:OutdoorAir, ZONE RETAIL BACK_SPACE B  - STORY GROUND PSZ-AC OA SYS CONTROLLER, Maximum Outdoor Air Flow Rate [m3/s], 1.28605
 Component Sizing Information, Coil:Cooling:DX:SingleSpeed, ZONE RETAIL BACK_SPACE B  - STORY GROUND PSZ-AC 1SPD DX AC CLG COIL, Design Size Rated Air Flow Rate [m3/s], 1.28605
 Component Sizing Information, Coil:Cooling:DX:SingleSpeed, ZONE RETAIL BACK_SPACE B  - STORY GROUND PSZ-AC 1SPD DX AC CLG COIL, Design Size Gross Rated Total Cooling Capacity [W], 21288.61637
 Component Sizing Information, Coil:Cooling:DX:SingleSpeed, ZONE RETAIL BACK_SPACE B  - STORY GROUND PSZ-AC 1SPD DX AC CLG COIL, Design Size Gross Rated Sensible Heat Ratio, 0.79866
 DX Cooling Coil Standard Rating Information, Coil:Cooling:DX:SingleSpeed, ZONE RETAIL BACK_SPACE B  - STORY GROUND PSZ-AC 1SPD DX AC CLG COIL, 20292.0, 2.51, 8.56, 9.83, 9.37
 Component Sizing Information, Coil:Heating:Fuel, ZONE RETAIL BACK_SPACE B  - STORY GROUND PSZ-AC GAS HTG COIL, Design Size Nominal Capacity [W], 43624.00903
 Component Sizing Information, Coil:Heating:Electric, ZONE RETAIL BACK_SPACE B  - STORY GROUND PSZ-AC ELECTRIC BACKUP HTG COIL, Design Size Nominal Capacity [W], 43624.00903
 Component Sizing Information, Fan:ConstantVolume, ZONE RETAIL BACK_SPACE B  - STORY GROUND PSZ-AC FAN, Design Size Maximum Flow Rate [m3/s], 1.28605
 Component Sizing Information, Controller:OutdoorAir, ZONE RETAIL BACK_SPACE B END_B - STORY GROUND PSZ-AC OA SYS CONTROLLER, Maximum Outdoor Air Flow Rate [m3/s], 1.15086
 Component Sizing Information, Coil:Cooling:DX:SingleSpeed, ZONE RETAIL BACK_SPACE B END_B - STORY GROUND PSZ-AC 1SPD DX AC CLG COIL, Design Size Rated Air Flow Rate [m3/s], 1.15086
 Component Sizing Information, Coil:Cooling:DX:SingleSpeed, ZONE RETAIL BACK_SPACE B END_B - STORY GROUND PSZ-AC 1SPD DX AC CLG COIL, Design Size Gross Rated Total Cooling Capacity [W], 19050.86923
 Component Sizing Information, Coil:Cooling:DX:SingleSpeed, ZONE RETAIL BACK_SPACE B END_B - STORY GROUND PSZ-AC 1SPD DX AC CLG COIL, Design Size Gross Rated Sensible Heat Ratio, 0.79866
 DX Cooling Coil Standard Rating Information, Coil:Cooling:DX:SingleSpeed, ZONE RETAIL BACK_SPACE B END_B - STORY GROUND PSZ-AC 1SPD DX AC CLG COIL, 18159.0, 2.51, 8.56, 9.83, 9.37
 Component Sizing Information, Coil:Heating:Fuel, ZONE RETAIL BACK_SPACE B END_B - STORY GROUND PSZ-AC GAS HTG COIL, Design Size Nominal Capacity [W], 32596.61343
 Component Sizing Information, Coil:Heating:Electric, ZONE RETAIL BACK_SPACE B END_B - STORY GROUND PSZ-AC ELECTRIC BACKUP HTG COIL, Design Size Nominal Capacity [W], 32596.61343
 Component Sizing Information, Fan:ConstantVolume, ZONE RETAIL BACK_SPACE B END_B - STORY GROUND PSZ-AC FAN, Design Size Maximum Flow Rate [m3/s], 1.15086
 Component Sizing Information, Controller:OutdoorAir, ZONE RETAIL BACK_SPACE C  - STORY GROUND PSZ-AC OA SYS CONTROLLER, Maximum Outdoor Air Flow Rate [m3/s], 0.18868
 Component Sizing Information, Coil:Cooling:DX:SingleSpeed, ZONE RETAIL BACK_SPACE C  - STORY GROUND PSZ-AC 1SPD DX AC CLG COIL, Design Size Rated Air Flow Rate [m3/s], 0.18868
 Component Sizing Information, Coil:Cooling:DX:SingleSpeed, ZONE RETAIL BACK_SPACE C  - STORY GROUND PSZ-AC 1SPD DX AC CLG COIL, Design Size Gross Rated Total Cooling Capacity [W], 3500.65685
 Component Sizing Information, Coil:Cooling:DX:SingleSpeed, ZONE RETAIL BACK_SPACE C  - STORY GROUND PSZ-AC 1SPD DX AC CLG COIL, Design Size Gross Rated Sensible Heat Ratio, 0.75903
 DX Cooling Coil Standard Rating Information, Coil:Cooling:DX:SingleSpeed, ZONE RETAIL BACK_SPACE C  - STORY GROUND PSZ-AC 1SPD DX AC CLG COIL, 3354.4, 2.56, 8.72, 10.04, 9.66
 Component Sizing Information, Coil:Heating:Fuel, ZONE RETAIL BACK_SPACE C  - STORY GROUND PSZ-AC GAS HTG COIL, Design Size Nominal Capacity [W], 5377.54003
 Component Sizing Information, Coil:Heating:Electric, ZONE RETAIL BACK_SPACE C  - STORY GROUND PSZ-AC ELECTRIC BACKUP HTG COIL, Design Size Nominal Capacity [W], 5377.54003
 Component Sizing Information, Fan:ConstantVolume, ZONE RETAIL BACK_SPACE C  - STORY GROUND PSZ-AC FAN, Design Size Maximum Flow Rate [m3/s], 0.18868
 Component Sizing Information, Controller:OutdoorAir, ZONE RETAIL BACK_SPACE C END_B - STORY GROUND PSZ-AC OA SYS CONTROLLER, Maximum Outdoor Air Flow Rate [m3/s], 0.13517
 Component Sizing Information, Coil:Cooling:DX:SingleSpeed, ZONE RETAIL BACK_SPACE C END_B - STORY GROUND PSZ-AC 1SPD DX AC CLG COIL, Design Size Rated Air Flow Rate [m3/s], 0.13517
 Component Sizing Information, Coil:Cooling:DX:SingleSpeed, ZONE RETAIL BACK_SPACE C END_B - STORY GROUND PSZ-AC 1SPD DX AC CLG COIL, Design Size Gross Rated Total Cooling Capacity [W], 2237.58111
 Component Sizing Information, Coil:Cooling:DX:SingleSpeed, ZONE RETAIL BACK_SPACE C END_B - STORY GROUND PSZ-AC 1SPD DX AC CLG COIL, Design Size Gross Rated Sensible Heat Ratio, 0.79866
 DX Cooling Coil Standard Rating Information, Coil:Cooling:DX:SingleSpeed, ZONE RETAIL BACK_SPACE C END_B - STORY GROUND PSZ-AC 1SPD DX AC CLG COIL, 2132.8, 2.51, 8.56, 9.83, 9.37
 Component Sizing Information, Coil:Heating:Fuel, ZONE RETAIL BACK_SPACE C END_B - STORY GROUND PSZ-AC GAS HTG COIL, Design Size Nominal Capacity [W], 3561.86925
 Component Sizing Information, Coil:Heating:Electric, ZONE RETAIL BACK_SPACE C END_B - STORY GROUND PSZ-AC ELECTRIC BACKUP HTG COIL, Design Size Nominal Capacity [W], 3561.86925
 Component Sizing Information, Fan:ConstantVolume, ZONE RETAIL BACK_SPACE C END_B - STORY GROUND PSZ-AC FAN, Design Size Maximum Flow Rate [m3/s], 0.13517
 Component Sizing Information, Controller:OutdoorAir, ZONE RETAIL ENTRY A  - STORY GROUND PSZ-AC OA SYS CONTROLLER, Maximum Outdoor Air Flow Rate [m3/s], 7.11674E-002
 Component Sizing Information, Coil:Cooling:DX:SingleSpeed, ZONE RETAIL ENTRY A  - STORY GROUND PSZ-AC 1SPD DX AC CLG COIL, Design Size Rated Air Flow Rate [m3/s], 7.11674E-002
 Component Sizing Information, Coil:Cooling:DX:SingleSpeed, ZONE RETAIL ENTRY A  - STORY GROUND PSZ-AC 1SPD DX AC CLG COIL, Design Size Gross Rated Total Cooling Capacity [W], 1178.07320
 Component Sizing Information, Coil:Cooling:DX:SingleSpeed, ZONE RETAIL ENTRY A  - STORY GROUND PSZ-AC 1SPD DX AC CLG COIL, Design Size Gross Rated Sensible Heat Ratio, 0.79866
 DX Cooling Coil Standard Rating Information, Coil:Cooling:DX:SingleSpeed, ZONE RETAIL ENTRY A  - STORY GROUND PSZ-AC 1SPD DX AC CLG COIL, 1122.9, 2.51, 8.56, 9.83, 9.37
 Component Sizing Information, Coil:Heating:Fuel, ZONE RETAIL ENTRY A  - STORY GROUND PSZ-AC GAS HTG COIL, Design Size Nominal Capacity [W], 1827.18725
 Component Sizing Information, Coil:Heating:Electric, ZONE RETAIL ENTRY A  - STORY GROUND PSZ-AC ELECTRIC BACKUP HTG COIL, Design Size Nominal Capacity [W], 1827.18725
 Component Sizing Information, Fan:ConstantVolume, ZONE RETAIL ENTRY A  - STORY GROUND PSZ-AC FAN, Design Size Maximum Flow Rate [m3/s], 7.11674E-002
 Component Sizing Information, Controller:OutdoorAir, ZONE RETAIL ENTRY B  - STORY GROUND PSZ-AC OA SYS CONTROLLER, Maximum Outdoor Air Flow Rate [m3/s], 1.09753
 Component Sizing Information, Coil:Cooling:DX:SingleSpeed, ZONE RETAIL ENTRY B  - STORY GROUND PSZ-AC 1SPD DX AC CLG COIL, Design Size Rated Air Flow Rate [m3/s], 1.09753
 Component Sizing Information, Coil:Cooling:DX:SingleSpeed, ZONE RETAIL ENTRY B  - STORY GROUND PSZ-AC 1SPD DX AC CLG COIL, Design Size Gross Rated Total Cooling Capacity [W], 18167.97791
 Component Sizing Information, Coil:Cooling:DX:SingleSpeed, ZONE RETAIL ENTRY B  - STORY GROUND PSZ-AC 1SPD DX AC CLG COIL, Design Size Gross Rated Sensible Heat Ratio, 0.79866
 DX Cooling Coil Standard Rating Information, Coil:Cooling:DX:SingleSpeed, ZONE RETAIL ENTRY B  - STORY GROUND PSZ-AC 1SPD DX AC CLG COIL, 17317.4, 2.51, 8.56, 9.83, 9.37
 Component Sizing Information, Coil:Heating:Fuel, ZONE RETAIL ENTRY B  - STORY GROUND PSZ-AC GAS HTG COIL, Design Size Nominal Capacity [W], 52700.48235
 Component Sizing Information, Coil:Heating:Electric, ZONE RETAIL ENTRY B  - STORY GROUND PSZ-AC ELECTRIC BACKUP HTG COIL, Design Size Nominal Capacity [W], 52700.48235
 Component Sizing Information, Fan:ConstantVolume, ZONE RETAIL ENTRY B  - STORY GROUND PSZ-AC FAN, Design Size Maximum Flow Rate [m3/s], 1.09753
 Component Sizing Information, Controller:OutdoorAir, ZONE RETAIL ENTRY C  - STORY GROUND PSZ-AC OA SYS CONTROLLER, Maximum Outdoor Air Flow Rate [m3/s], 7.17115E-002
 Component Sizing Information, Coil:Cooling:DX:SingleSpeed, ZONE RETAIL ENTRY C  - STORY GROUND PSZ-AC 1SPD DX AC CLG COIL, Design Size Rated Air Flow Rate [m3/s], 7.17115E-002
 Component Sizing Information, Coil:Cooling:DX:SingleSpeed, ZONE RETAIL ENTRY C  - STORY GROUND PSZ-AC 1SPD DX AC CLG COIL, Design Size Gross Rated Total Cooling Capacity [W], 1187.07953
[...]
 Component Sizing Information, Coil:Cooling:DX:SingleSpeed, ZONE RETAIL RETAIL C  - STORY GROUND PSZ-AC 1SPD DX AC CLG COIL, Design Size Gross Rated Total Cooling Capacity [W], 44869.72162
 Component Sizing Information, Coil:Cooling:DX:SingleSpeed, ZONE RETAIL RETAIL C  - STORY GROUND PSZ-AC 1SPD DX AC CLG COIL, Design Size Gross Rated Sensible Heat Ratio, 0.78426
 DX Cooling Coil Standard Rating Information, Coil:Cooling:DX:SingleSpeed, ZONE RETAIL RETAIL C  - STORY GROUND PSZ-AC 1SPD DX AC CLG COIL, 42851.2, 2.53, 8.62, 9.91, 9.47
 Component Sizing Information, Coil:Heating:Fuel, ZONE RETAIL RETAIL C  - STORY GROUND PSZ-AC GAS HTG COIL, Design Size Nominal Capacity [W], 66468.38749
 Component Sizing Information, Coil:Heating:Electric, ZONE RETAIL RETAIL C  - STORY GROUND PSZ-AC ELECTRIC BACKUP HTG COIL, Design Size Nominal Capacity [W], 66468.38749
 Component Sizing Information, Fan:ConstantVolume, ZONE RETAIL RETAIL C  - STORY GROUND PSZ-AC FAN, Design Size Maximum Flow Rate [m3/s], 2.60442
 Component Sizing Information, Controller:OutdoorAir, ZONE RETAIL RETAIL C END_A - STORY GROUND PSZ-AC OA SYS CONTROLLER, Maximum Outdoor Air Flow Rate [m3/s], 0.20996
 Component Sizing Information, Coil:Cooling:DX:SingleSpeed, ZONE RETAIL RETAIL C END_A - STORY GROUND PSZ-AC 1SPD DX AC CLG COIL, Design Size Rated Air Flow Rate [m3/s], 0.20996
 Component Sizing Information, Coil:Cooling:DX:SingleSpeed, ZONE RETAIL RETAIL C END_A - STORY GROUND PSZ-AC 1SPD DX AC CLG COIL, Design Size Gross Rated Total Cooling Capacity [W], 3675.72355
 Component Sizing Information, Coil:Cooling:DX:SingleSpeed, ZONE RETAIL RETAIL C END_A - STORY GROUND PSZ-AC 1SPD DX AC CLG COIL, Design Size Gross Rated Sensible Heat Ratio, 0.77864
 DX Cooling Coil Standard Rating Information, Coil:Cooling:DX:SingleSpeed, ZONE RETAIL RETAIL C END_A - STORY GROUND PSZ-AC 1SPD DX AC CLG COIL, 3513.0, 2.53, 8.64, 9.93, 9.51
 Component Sizing Information, Coil:Heating:Fuel, ZONE RETAIL RETAIL C END_A - STORY GROUND PSZ-AC GAS HTG COIL, Design Size Nominal Capacity [W], 5292.66224
 Component Sizing Information, Coil:Heating:Electric, ZONE RETAIL RETAIL C END_A - STORY GROUND PSZ-AC ELECTRIC BACKUP HTG COIL, Design Size Nominal Capacity [W], 5292.66224
 Component Sizing Information, Fan:ConstantVolume, ZONE RETAIL RETAIL C END_A - STORY GROUND PSZ-AC FAN, Design Size Maximum Flow Rate [m3/s], 0.20996
! <Environment>,Environment Name,Environment Type, Start Date, End Date, Start DayOfWeek, Duration {#days}, Source:Start DayOfWeek,  Use Daylight Saving, Use Holidays, Apply Weekend Holiday Rule,  Use Rain Values, Use Snow Values
! <Environment:Special Days>, Special Day Name, Special Day Type, Source, Start Date, Duration {#days}
! <Environment:Daylight Saving>, Daylight Saving Indicator, Source, Start Date, End Date
! <Environment:WarmupDays>, NumberofWarmupDays
Environment,CLIMATE ZONE 3 ANN CLG .4% CONDNS DB=>MWB,SizingPeriod:DesignDay,08/21,08/21,SummerDesignDay,1,N/A,N/A,N/A,N/A,N/A,N/A
Environment:Daylight Saving,No,SizingPeriod:DesignDay
! <Environment:Design Day Data>, Max Dry-Bulb Temp {C}, Temp Range {dC}, Temp Range Ind Type, Hum Ind Value at Max Temp, Hum Ind Type,Pressure {Pa}, Wind Direction {deg CW from N}, Wind Speed {m/s}, Clearness, Rain, Snow
! <Environment:Design Day Misc>,DayOfYear,ASHRAE A Coeff,ASHRAE B Coeff,ASHRAE C Coeff,Solar Constant-Annual Variation,Eq of Time {minutes}, Solar Declination Angle {deg}, Solar Model
Environment:Design Day Data,27.70,7.40,DefaultMultipliers,101301,290,4.9,0.00,No,No
Environment:Design Day Misc,233,1106.3,0.2000,0.1216,1.0,-3.33,12.4,ASHRAETau
Environment:WarmupDays,  6
! <Tabular Report>,Style,Unit Conversion
Tabular Report,HTML,None
! <Warmup Convergence Information>,Zone Name,Environment Type/Name,Average Warmup Temperature Difference {deltaC},Std Dev Warmup Temperature Difference {deltaC},Max Temperature Pass/Fail Convergence,Min Temperature Pass/Fail Convergence,Average Warmup Load Difference {W},Std Dev Warmup Load Difference {W},Heating Load Pass/Fail Convergence,Cooling Load Pass/Fail Convergence
 Warmup Convergence Information,ZONE RETAIL BACK_SPACE A  - STORY GROUND,SizingPeriod: CLIMATE ZONE 3 ANN CLG .4% CONDNS DB=>MWB,1.3136159723E-002,3.9965089239E-002,Pass,Pass,0.1392248424,0.3999627475,Pass,Pass
 Warmup Convergence Information,ZONE RETAIL BACK_SPACE A END_B - STORY GROUND,SizingPeriod: CLIMATE ZONE 3 ANN CLG .4% CONDNS DB=>MWB,1.9588157716E-002,4.9396511019E-002,Pass,Pass,3.9064211236E-002,7.0727608337E-002,Pass,Pass
 Warmup Convergence Information,ZONE RETAIL BACK_SPACE B  - STORY GROUND,SizingPeriod: CLIMATE ZONE 3 ANN CLG .4% CONDNS DB=>MWB,2.2758501105E-002,7.8216500753E-002,Pass,Pass,0.4238362754,4.5443950721,Pass,Pass
 Warmup Convergence Information,ZONE RETAIL BACK_SPACE B END_B - STORY GROUND,SizingPeriod: CLIMATE ZONE 3 ANN CLG .4% CONDNS DB=>MWB,1.5384508543E-002,3.6798629858E-002,Pass,Pass,7.7096805786E-002,0.2781881527,Pass,Pass
 Warmup Convergence Information,ZONE RETAIL BACK_SPACE C  - STORY GROUND,SizingPeriod: CLIMATE ZONE 3 ANN CLG .4% CONDNS DB=>MWB,1.3407750820E-002,4.0675212621E-002,Pass,Pass,0.1256456244,0.3699457476,Pass,Pass
 Warmup Convergence Information,ZONE RETAIL BACK_SPACE C END_B - STORY GROUND,SizingPeriod: CLIMATE ZONE 3 ANN CLG .4% CONDNS DB=>MWB,1.9443226750E-002,4.8563365511E-002,Pass,Pass,3.6450475815E-002,7.0447760206E-002,Pass,Pass
 Warmup Convergence Information,ZONE RETAIL ENTRY A  - STORY GROUND,SizingPeriod: CLIMATE ZONE 3 ANN CLG .4% CONDNS DB=>MWB,7.7111801810E-002,0.4442671319,Pass,Pass,0.1716884863,0.7444424099,Pass,Pass
 Warmup Convergence Information,ZONE RETAIL ENTRY B  - STORY GROUND,SizingPeriod: CLIMATE ZONE 3 ANN CLG .4% CONDNS DB=>MWB,7.7151295044E-002,0.4657779306,Pass,Pass,0.2026024559,1.6560470985,Pass,Pass
 Warmup Convergence Information,ZONE RETAIL ENTRY C  - STORY GROUND,SizingPeriod: CLIMATE ZONE 3 ANN CLG .4% CONDNS DB=>MWB,7.7109564141E-002,0.4443185904,Pass,Pass,0.1638038934,0.7263267485,Pass,Pass
 Warmup Convergence Information,ZONE RETAIL POINT_OF_SALE A  - STORY GROUND,SizingPeriod: CLIMATE ZONE 3 ANN CLG .4% CONDNS DB=>MWB,4.5766030244E-002,0.2352167171,Pass,Pass,6.4554834193E-002,0.5171617058,Pass,Pass
 Warmup Convergence Information,ZONE RETAIL POINT_OF_SALE B  - STORY GROUND,SizingPeriod: CLIMATE ZONE 3 ANN CLG .4% CONDNS DB=>MWB,5.9083798248E-002,0.2656636820,Pass,Pass,4.1833964027E-002,0.3153460569,Pass,Pass
 Warmup Convergence Information,ZONE RETAIL POINT_OF_SALE C  - STORY GROUND,SizingPeriod: CLIMATE ZONE 3 ANN CLG .4% CONDNS DB=>MWB,4.6213073753E-002,0.2305849061,Pass,Pass,6.1732398266E-002,0.5224461470,Pass,Pass
 Warmup Convergence Information,ZONE RETAIL RETAIL A  - STORY GROUND,SizingPeriod: CLIMATE ZONE 3 ANN CLG .4% CONDNS DB=>MWB,8.3411422713E-002,0.3317159252,Pass,Pass,0.4550268848,4.1819790865,Pass,Pass
 Warmup Convergence Information,ZONE RETAIL RETAIL A END_A - STORY GROUND,SizingPeriod: CLIMATE ZONE 3 ANN CLG .4% CONDNS DB=>MWB,7.0316568963E-002,0.3309427794,Pass,Pass,0.1390662600,1.0939928044,Pass,Pass
 Warmup Convergence Information,ZONE RETAIL RETAIL B  - STORY GROUND,SizingPeriod: CLIMATE ZONE 3 ANN CLG .4% CONDNS DB=>MWB,8.3395599562E-002,0.3192311789,Pass,Pass,0.1818923981,1.8679430074,Pass,Pass
 Warmup Convergence Information,ZONE RETAIL RETAIL B END_A - STORY GROUND,SizingPeriod: CLIMATE ZONE 3 ANN CLG .4% CONDNS DB=>MWB,8.3425647199E-002,0.3475420140,Pass,Pass,0.4792807615,4.9004616705,Pass,Pass
 Warmup Convergence Information,ZONE RETAIL RETAIL C  - STORY GROUND,SizingPeriod: CLIMATE ZONE 3 ANN CLG .4% CONDNS DB=>MWB,8.3400698297E-002,0.3316769968,Pass,Pass,0.5383796778,4.2901533970,Pass,Pass
 Warmup Convergence Information,ZONE RETAIL RETAIL C END_A - STORY GROUND,SizingPeriod: CLIMATE ZONE 3 ANN CLG .4% CONDNS DB=>MWB,6.9833147921E-002,0.3140497719,Pass,Pass,0.1616638601,1.2542252343,Pass,Pass
Environment,CLIMATE ZONE 3 ANN CLG .4% CONDNS WB=>MDB,SizingPeriod:DesignDay,08/21,08/21,SummerDesignDay,1,N/A,N/A,N/A,N/A,N/A,N/A
Environment:Daylight Saving,No,SizingPeriod:DesignDay
Environment:Design Day Data,25.50,7.40,DefaultMultipliers,101301,290,4.9,0.00,No,No
Environment:Design Day Misc,233,1106.3,0.2000,0.1216,1.0,-3.33,12.4,ASHRAETau
Environment:WarmupDays,  6
 Warmup Convergence Information,ZONE RETAIL BACK_SPACE A  - STORY GROUND,SizingPeriod: CLIMATE ZONE 3 ANN CLG .4% CONDNS WB=>MDB,2.2608033481E-002,4.4718509961E-002,Pass,Pass,0.1917069335,0.9402400322,Pass,Pass
 Warmup Convergence Information,ZONE RETAIL BACK_SPACE A END_B - STORY GROUND,SizingPeriod: CLIMATE ZONE 3 ANN CLG .4% CONDNS WB=>MDB,3.6925471566E-002,8.0987153878E-002,Pass,Pass,7.4015840381E-002,0.2564526490,Pass,Pass
 Warmup Convergence Information,ZONE RETAIL BACK_SPACE B  - STORY GROUND,SizingPeriod: CLIMATE ZONE 3 ANN CLG .4% CONDNS WB=>MDB,1.3525194566E-002,2.8067900152E-002,Pass,Pass,4.6509037037E-002,0.3177982621,Pass,Pass
 Warmup Convergence Information,ZONE RETAIL BACK_SPACE B END_B - STORY GROUND,SizingPeriod: CLIMATE ZONE 3 ANN CLG .4% CONDNS WB=>MDB,2.8389182923E-002,6.9182955521E-002,Pass,Pass,0.1346556087,0.3953007289,Pass,Pass
 Warmup Convergence Information,ZONE RETAIL BACK_SPACE C  - STORY GROUND,SizingPeriod: CLIMATE ZONE 3 ANN CLG .4% CONDNS WB=>MDB,2.2407450208E-002,4.5498210289E-002,Pass,Pass,0.1607821846,0.8142967649,Pass,Pass
 Warmup Convergence Information,ZONE RETAIL BACK_SPACE C END_B - STORY GROUND,SizingPeriod: CLIMATE ZONE 3 ANN CLG .4% CONDNS WB=>MDB,3.6905336853E-002,8.1338504127E-002,Pass,Pass,6.2190464900E-002,0.1650497912,Pass,Pass
 Warmup Convergence Information,ZONE RETAIL ENTRY A  - STORY GROUND,SizingPeriod: CLIMATE ZONE 3 ANN CLG .4% CONDNS WB=>MDB,7.0704340336E-002,0.3974409691,Pass,Pass,0.3357541994,2.1466873693,Pass,Pass
 Warmup Convergence Information,ZONE RETAIL ENTRY B  - STORY GROUND,SizingPeriod: CLIMATE ZONE 3 ANN CLG .4% CONDNS WB=>MDB,7.7155811902E-002,0.4517552118,Pass,Pass,217.4982514459,2599.8561775419,Pass,Pass
 Warmup Convergence Information,ZONE RETAIL ENTRY C  - STORY GROUND,SizingPeriod: CLIMATE ZONE 3 ANN CLG .4% CONDNS WB=>MDB,7.0980561596E-002,0.3989605064,Pass,Pass,0.2428290843,1.7009665367,Pass,Pass
 Warmup Convergence Information,ZONE RETAIL POINT_OF_SALE A  - STORY GROUND,SizingPeriod: CLIMATE ZONE 3 ANN CLG .4% CONDNS WB=>MDB,2.7159690742E-002,0.1295755187,Pass,Pass,3.5503174671E-002,0.2244947957,Pass,Pass
 Warmup Convergence Information,ZONE RETAIL POINT_OF_SALE B  - STORY GROUND,SizingPeriod: CLIMATE ZONE 3 ANN CLG .4% CONDNS WB=>MDB,4.1163254411E-002,0.1799783797,Pass,Pass,2.3305482554E-002,0.1551185250,Pass,Pass
 Warmup Convergence Information,ZONE RETAIL POINT_OF_SALE C  - STORY GROUND,SizingPeriod: CLIMATE ZONE 3 ANN CLG .4% CONDNS WB=>MDB,2.7563992073E-002,0.1289031514,Pass,Pass,3.2004915040E-002,0.2262188199,Pass,Pass
 Warmup Convergence Information,ZONE RETAIL RETAIL A  - STORY GROUND,SizingPeriod: CLIMATE ZONE 3 ANN CLG .4% CONDNS WB=>MDB,7.7151690519E-002,0.2755383416,Pass,Pass,0.7742057523,8.4062974916,Pass,Pass
 Warmup Convergence Information,ZONE RETAIL RETAIL A END_A - STORY GROUND,SizingPeriod: CLIMATE ZONE 3 ANN CLG .4% CONDNS WB=>MDB,5.2253594278E-002,0.2451446019,Pass,Pass,0.1422883922,1.0374633190,Pass,Pass
 Warmup Convergence Information,ZONE RETAIL RETAIL B  - STORY GROUND,SizingPeriod: CLIMATE ZONE 3 ANN CLG .4% CONDNS WB=>MDB,8.3401382310E-002,0.2959764710,Pass,Pass,9.9191988156E-002,0.8722253768,Pass,Pass
 Warmup Convergence Information,ZONE RETAIL RETAIL B END_A - STORY GROUND,SizingPeriod: CLIMATE ZONE 3 ANN CLG .4% CONDNS WB=>MDB,7.7614930737E-002,0.2910209153,Pass,Pass,0.6283907884,6.6612393464,Pass,Pass
 Warmup Convergence Information,ZONE RETAIL RETAIL C  - STORY GROUND,SizingPeriod: CLIMATE ZONE 3 ANN CLG .4% CONDNS WB=>MDB,7.7752791663E-002,0.2769013351,Pass,Pass,0.8978809075,9.8575953822,Pass,Pass
 Warmup Convergence Information,ZONE RETAIL RETAIL C END_A - STORY GROUND,SizingPeriod: CLIMATE ZONE 3 ANN CLG .4% CONDNS WB=>MDB,5.1762736020E-002,0.2316620055,Pass,Pass,0.2439892673,1.3024566482,Pass,Pass
Environment,CLIMATE ZONE 3 ANN HTG 99.6% CONDNS DB,SizingPeriod:DesignDay,01/21,01/21,WinterDesignDay,1,N/A,N/A,N/A,N/A,N/A,N/A
Environment:Daylight Saving,No,SizingPeriod:DesignDay
Environment:Design Day Data,2.90,0.00,DefaultMultipliers,101301,50,2.2,0.00,No,No
Environment:Design Day Misc, 21,1229.0,0.1415,5.7310E-002,1.0,-11.15,-20.1,ASHRAEClearSky
Environment:WarmupDays,  6
 Warmup Convergence Information,ZONE RETAIL BACK_SPACE A  - STORY GROUND,SizingPeriod: CLIMATE ZONE 3 ANN HTG 99.6% CONDNS DB,1.6152511427E-013,1.2880724879E-013,Pass,Pass,2.4738078439E-013,1.7602712899E-013,Pass,Pass
 Warmup Convergence Information,ZONE RETAIL BACK_SPACE A END_B - STORY GROUND,SizingPeriod: CLIMATE ZONE 3 ANN HTG 99.6% CONDNS DB,3.5033704333E-015,2.8082333052E-015,Pass,Pass,4.2015523692E-014,4.8186748582E-014,Pass,Pass
 Warmup Convergence Information,ZONE RETAIL BACK_SPACE B  - STORY GROUND,SizingPeriod: CLIMATE ZONE 3 ANN HTG 99.6% CONDNS DB,5.4228226847E-014,4.6491681466E-014,Pass,Pass,1.9231983536E-013,1.5558867714E-013,Pass,Pass
 Warmup Convergence Information,ZONE RETAIL BACK_SPACE B END_B - STORY GROUND,SizingPeriod: CLIMATE ZONE 3 ANN HTG 99.6% CONDNS DB,1.3954269838E-013,1.2205153273E-013,Pass,Pass,2.1478460742E-013,1.8061713462E-013,Pass,Pass
 Warmup Convergence Information,ZONE RETAIL BACK_SPACE C  - STORY GROUND,SizingPeriod: CLIMATE ZONE 3 ANN HTG 99.6% CONDNS DB,1.5498713424E-013,9.8063080842E-014,Pass,Pass,2.2091057229E-013,1.3744761299E-013,Pass,Pass
 Warmup Convergence Information,ZONE RETAIL BACK_SPACE C END_B - STORY GROUND,SizingPeriod: CLIMATE ZONE 3 ANN HTG 99.6% CONDNS DB,1.8888594392E-013,1.4407119122E-013,Pass,Pass,1.7730340220E-013,1.3097393153E-013,Pass,Pass
 Warmup Convergence Information,ZONE RETAIL ENTRY A  - STORY GROUND,SizingPeriod: CLIMATE ZONE 3 ANN HTG 99.6% CONDNS DB,1.0534782923E-014,1.7351273583E-014,Pass,Pass,1.9614292341E-013,4.5801870688E-013,Pass,Pass
 Warmup Convergence Information,ZONE RETAIL ENTRY B  - STORY GROUND,SizingPeriod: CLIMATE ZONE 3 ANN HTG 99.6% CONDNS DB,7.0314124893E-015,6.3147306450E-015,Pass,Pass,4.3106900425E-012,3.5594315431E-012,Pass,Pass
 Warmup Convergence Information,ZONE RETAIL ENTRY C  - STORY GROUND,SizingPeriod: CLIMATE ZONE 3 ANN HTG 99.6% CONDNS DB,2.4523593033E-014,8.0135314527E-015,Pass,Pass,4.1295635574E-014,1.7612879504E-014,Pass,Pass
 Warmup Convergence Information,ZONE RETAIL POINT_OF_SALE A  - STORY GROUND,SizingPeriod: CLIMATE ZONE 3 ANN HTG 99.6% CONDNS DB,6.9351931605E-014,4.5849985638E-014,Pass,Pass,3.3393852718E-013,2.5720609975E-013,Pass,Pass
 Warmup Convergence Information,ZONE RETAIL POINT_OF_SALE B  - STORY GROUND,SizingPeriod: CLIMATE ZONE 3 ANN HTG 99.6% CONDNS DB,2.4178190314E-015,2.6030608166E-015,Pass,Pass,1.1033290373E-012,1.5211518739E-012,Pass,Pass
 Warmup Convergence Information,ZONE RETAIL POINT_OF_SALE C  - STORY GROUND,SizingPeriod: CLIMATE ZONE 3 ANN HTG 99.6% CONDNS DB,2.1464311809E-015,2.1438774249E-015,Pass,Pass,2.1858790476E-015,1.7915083304E-015,Pass,Pass
 Warmup Convergence Information,ZONE RETAIL RETAIL A  - STORY GROUND,SizingPeriod: CLIMATE ZONE 3 ANN HTG 99.6% CONDNS DB,5.2895959218E-014,4.2829709739E-014,Pass,Pass,3.6939574542E-013,2.8609879263E-013,Pass,Pass
 Warmup Convergence Information,ZONE RETAIL RETAIL A END_A - STORY GROUND,SizingPeriod: CLIMATE ZONE 3 ANN HTG 99.6% CONDNS DB,1.3056222770E-013,8.9863194826E-014,Pass,Pass,2.6033758800E-013,2.2038681724E-013,Pass,Pass
 Warmup Convergence Information,ZONE RETAIL RETAIL B  - STORY GROUND,SizingPeriod: CLIMATE ZONE 3 ANN HTG 99.6% CONDNS DB,5.0330110450E-015,3.8940543939E-015,Pass,Pass,3.0894961700E-012,2.7410216713E-012,Pass,Pass
 Warmup Convergence Information,ZONE RETAIL RETAIL B END_A - STORY GROUND,SizingPeriod: CLIMATE ZONE 3 ANN HTG 99.6% CONDNS DB,3.4219540781E-014,3.9329685349E-014,Pass,Pass,1.6638466390E-013,2.0522902524E-013,Pass,Pass
 Warmup Convergence Information,ZONE RETAIL RETAIL C  - STORY GROUND,SizingPeriod: CLIMATE ZONE 3 ANN HTG 99.6% CONDNS DB,2.4671622769E-015,2.4513215849E-015,Pass,Pass,2.8258948323E-015,2.1575118427E-015,Pass,Pass
 Warmup Convergence Information,ZONE RETAIL RETAIL C END_A - STORY GROUND,SizingPeriod: CLIMATE ZONE 3 ANN HTG 99.6% CONDNS DB,8.9261931180E-014,7.0645863863E-014,Pass,Pass,1.5536714340E-013,1.1797153323E-013,Pass,Pass
Environment,RUN PERIOD 1,WeatherFileRunPeriod,01/01,12/31,Thursday,365,Use RunPeriod Specified Day,No,No,No,Yes,Yes
Environment:Daylight Saving,No,RunPeriod Object
Environment:WarmupDays,  6
 Warmup Convergence Information,ZONE RETAIL BACK_SPACE A  - STORY GROUND,RunPeriod: RUN PERIOD 1,0.1166706171,0.4021947060,Pass,Pass,0.1827401303,0.5825868337,Pass,Pass
 Warmup Convergence Information,ZONE RETAIL BACK_SPACE A END_B - STORY GROUND,RunPeriod: RUN PERIOD 1,0.1169456608,0.4563501910,Pass,Pass,0.2461780269,0.9567092326,Pass,Pass
 Warmup Convergence Information,ZONE RETAIL BACK_SPACE B  - STORY GROUND,RunPeriod: RUN PERIOD 1,7.9118972070E-002,0.3208480458,Pass,Pass,0.2662539307,0.8342555739,Pass,Pass
 Warmup Convergence Information,ZONE RETAIL BACK_SPACE B END_B - STORY GROUND,RunPeriod: RUN PERIOD 1,7.6465639906E-002,0.4179855368,Pass,Pass,1.3373597887,12.9621421368,Pass,Pass
 Warmup Convergence Information,ZONE RETAIL BACK_SPACE C  - STORY GROUND,RunPeriod: RUN PERIOD 1,7.5005858923E-002,0.4058304956,Pass,Pass,0.2032924369,0.5897109267,Pass,Pass
 Warmup Convergence Information,ZONE RETAIL BACK_SPACE C END_B - STORY GROUND,RunPeriod: RUN PERIOD 1,7.5230079122E-002,0.4587895206,Pass,Pass,0.2359467901,1.1580835408,Pass,Pass
 Warmup Convergence Information,ZONE RETAIL ENTRY A  - STORY GROUND,RunPeriod: RUN PERIOD 1,0.1658689624,0.4518941478,Pass,Pass,0.2583792902,0.9718182622,Pass,Pass
 Warmup Convergence Information,ZONE RETAIL ENTRY B  - STORY GROUND,RunPeriod: RUN PERIOD 1,0.1540177104,0.4474518139,Pass,Pass,0.3820468501,1.3394674161,Pass,Pass
 Warmup Convergence Information,ZONE RETAIL ENTRY C  - STORY GROUND,RunPeriod: RUN PERIOD 1,0.1312454191,0.4505087450,Pass,Pass,1.2227118813,11.9268150903,Pass,Pass
 Warmup Convergence Information,ZONE RETAIL POINT_OF_SALE A  - STORY GROUND,RunPeriod: RUN PERIOD 1,0.1166928843,0.4639031358,Pass,Pass,0.1514118368,0.4272945988,Pass,Pass
 Warmup Convergence Information,ZONE RETAIL POINT_OF_SALE B  - STORY GROUND,RunPeriod: RUN PERIOD 1,0.1012043455,0.4479240767,Pass,Pass,0.2479652431,1.3305087052,Pass,Pass
 Warmup Convergence Information,ZONE RETAIL POINT_OF_SALE C  - STORY GROUND,RunPeriod: RUN PERIOD 1,9.3777823269E-002,0.4656163652,Pass,Pass,0.1803536703,0.8038296847,Pass,Pass
 Warmup Convergence Information,ZONE RETAIL RETAIL A  - STORY GROUND,RunPeriod: RUN PERIOD 1,0.1170456212,0.4524321978,Pass,Pass,0.2299059924,0.6646492538,Pass,Pass
 Warmup Convergence Information,ZONE RETAIL RETAIL A END_A - STORY GROUND,RunPeriod: RUN PERIOD 1,0.1166813260,0.4562252051,Pass,Pass,0.1836628015,0.5276342170,Pass,Pass
 Warmup Convergence Information,ZONE RETAIL RETAIL B  - STORY GROUND,RunPeriod: RUN PERIOD 1,0.1178303519,0.4353542203,Pass,Pass,0.1060903060,0.1994573676,Pass,Pass
 Warmup Convergence Information,ZONE RETAIL RETAIL B END_A - STORY GROUND,RunPeriod: RUN PERIOD 1,0.1170625400,0.4473853697,Pass,Pass,0.1647759648,0.4774463774,Pass,Pass
 Warmup Convergence Information,ZONE RETAIL RETAIL C  - STORY GROUND,RunPeriod: RUN PERIOD 1,0.1168731100,0.4470079495,Pass,Pass,0.1498376620,0.4182753902,Pass,Pass
 Warmup Convergence Information,ZONE RETAIL RETAIL C END_A - STORY GROUND,RunPeriod: RUN PERIOD 1,0.1169579192,0.4501969247,Pass,Pass,0.1934521016,0.5302071896,Pass,Pass
! <Program Control Information:Threads/Parallel Sims>, Threading Supported,Maximum Number of Threads, Env Set Threads (OMP_NUM_THREADS), EP Env Set Threads (EP_OMP_NUM_THREADS), IDF Set Threads, Number of Threads Used (Interior Radiant Exchange), Number Nominal Surfaces, Number Parallel Sims
Program Control:Threads/Parallel Sims, No,1, N/A, N/A, N/A, N/A, N/A, N/A
End of Data
