Program Version,EnergyPlus, Version 8.7.0-df3c0af5a5, YMD=2017.09.06 14:52
! <Version>, Version ID
 Version, 8.7
! <Timesteps per Hour>, #TimeSteps, Minutes per TimeStep {minutes}
 Timesteps per Hour,  6, 10
! <System Convergence Limits>, Minimum System TimeStep {minutes}, Max HVAC Iterations, Minimum Plant Iterations, Maximum Plant Iterations
 System Convergence Limits, 1, 20, 2, 8
! <Simulation Control>, Do Zone Sizing, Do System Sizing, Do Plant Sizing, Do Design Days, Do Weather Simulation, Do HVAC Sizing Simulation
 Simulation Control, Yes, Yes, No, Yes, Yes, No
! <Output Reporting Tolerances>, Tolerance for Time Heating Setpoint Not Met, Tolerance for Zone Cooling Setpoint Not Met Time
 Output Reporting Tolerances, 0.200, 0.200, 
! <Site:GroundTemperature:BuildingSurface>,Jan{C},Feb{C},Mar{C},Apr{C},May{C},Jun{C},Jul{C},Aug{C},Sep{C},Oct{C},Nov{C},Dec{C}
 Site:GroundTemperature:BuildingSurface,  18.00,  18.00,  18.00,  18.00,  18.00,  18.00,  18.00,  18.00,  18.00,  18.00,  18.00,  18.00
! <Site:GroundTemperature:FCfactorMethod>,Jan{C},Feb{C},Mar{C},Apr{C},May{C},Jun{C},Jul{C},Aug{C},Sep{C},Oct{C},Nov{C},Dec{C}
 Site:GroundTemperature:FCfactorMethod,  10.94,  10.63,  11.18,  12.06,  14.33,  16.09,  17.28,  17.64,  17.02,  15.66,  13.83,  12.14
! <Site:GroundTemperature:Shallow>,Jan{C},Feb{C},Mar{C},Apr{C},May{C},Jun{C},Jul{C},Aug{C},Sep{C},Oct{C},Nov{C},Dec{C}
 Site:GroundTemperature:Shallow,  13.00,  13.00,  13.00,  13.00,  13.00,  13.00,  13.00,  13.00,  13.00,  13.00,  13.00,  13.00
! <Site:GroundTemperature:Deep>,Jan{C},Feb{C},Mar{C},Apr{C},May{C},Jun{C},Jul{C},Aug{C},Sep{C},Oct{C},Nov{C},Dec{C}
 Site:GroundTemperature:Deep,  16.00,  16.00,  16.00,  16.00,  16.00,  16.00,  16.00,  16.00,  16.00,  16.00,  16.00,  16.00
! <Site:GroundReflectance>,Jan{dimensionless},Feb{dimensionless},Mar{dimensionless},Apr{dimensionless},May{dimensionless},Jun{dimensionless},Jul{dimensionless},Aug{dimensionless},Sep{dimensionless},Oct{dimensionless},Nov{dimensionless},Dec{dimensionless}
 Site:GroundReflectance,  0.20,  0.20,  0.20,  0.20,  0.20,  0.20,  0.20,  0.20,  0.20,  0.20,  0.20,  0.20
! <Site:GroundReflectance:SnowModifier>, Normal, Daylighting {dimensionless}
 Site:GroundReflectance:SnowModifier,   1.000,   1.000
! <Site:GroundReflectance:Snow>,Jan{dimensionless},Feb{dimensionless},Mar{dimensionless},Apr{dimensionless},May{dimensionless},Jun{dimensionless},Jul{dimensionless},Aug{dimensionless},Sep{dimensionless},Oct{dimensionless},Nov{dimensionless},Dec{dimensionless}
 Site:GroundReflectance:Snow,  0.20,  0.20,  0.20,  0.20,  0.20,  0.20,  0.20,  0.20,  0.20,  0.20,  0.20,  0.20
! <Site:GroundReflectance:Snow:Daylighting>,Jan{dimensionless},Feb{dimensionless},Mar{dimensionless},Apr{dimensionless},May{dimensionless},Jun{dimensionless},Jul{dimensionless},Aug{dimensionless},Sep{dimensionless},Oct{dimensionless},Nov{dimensionless},Dec{dimensionless}
 Site:GroundReflectance:Snow:Daylighting,  0.20,  0.20,  0.20,  0.20,  0.20,  0.20,  0.20,  0.20,  0.20,  0.20,  0.20,  0.20
! <Environment:Weather Station>,Wind Sensor Height Above Ground {m},Wind Speed Profile Exponent {},Wind Speed Profile Boundary Layer Thickness {m},Air Temperature Sensor Height Above Ground {m},Wind Speed Modifier Coefficient-Internal,Temperature Modifier Coefficient-Internal
Environment:Weather Station,10.000,0.140,270.000,1.500,1.586,9.750E-003
! <Site:Location>, Location Name, Latitude {N+/S- Deg}, Longitude {E+/W- Deg},  Time Zone Number {GMT+/-}, Elevation {m},  Standard Pressure at Elevation {Pa}, Standard RhoAir at Elevation
Site:Location,Climate Zone 3 CA USA CTZRV2 WMO#=724930,37.70,-122.20,-8.00,2.00,101301,1.2040
! <Building Information>, Building Name,North Axis {deg},Terrain,  Loads Convergence Tolerance Value,Temperature Convergence Tolerance Value,  Solar Distribution,Maximum Number of Warmup Days,Minimum Number of Warmup Days
 Building Information,CEC T24 2001|RetailStandalone,0.000,Suburbs,4.00000E-002,0.40000,FullExterior,25,6
! <Inside Convection Algorithm>, Algorithm {Simple | TARP | CeilingDiffuser | AdaptiveConvectionAlgorithm}
Inside Convection Algorithm,TARP
! <Outside Convection Algorithm>, Algorithm {SimpleCombined | TARP | MoWitt | DOE-2 | AdaptiveConvectionAlgorithm}
Outside Convection Algorithm,DOE-2
! <Sky Radiance Distribution>, Value {Anisotropic}
Sky Radiance Distribution,Anisotropic
! <Zone Air Solution Algorithm>, Value {ThirdOrderBackwardDifference | AnalyticalSolution | EulerMethod}
 Zone Air Solution Algorithm, ThirdOrderBackwardDifference
! <Zone Air Carbon Dioxide Balance Simulation>, Simulation {Yes/No}, Carbon Dioxide Concentration
 Zone Air Carbon Dioxide Balance Simulation, No,N/A
! <Zone Air Generic Contaminant Balance Simulation>, Simulation {Yes/No}, Generic Contaminant Concentration
 Zone Air Generic Contaminant Balance Simulation, No,N/A
! <Zone Air Mass Flow Balance Simulation>, Enforce Mass Balance, Adjust Zone Mixing, Adjust Zone Infiltration {AddInfiltration | AdjustInfiltration | None}, Infiltration Zones {MixingSourceZonesOnly | AllZones}
 Zone Air Mass Flow Balance Simulation, No,N/A,N/A,N/A
! <Environment:Site Atmospheric Variation>,Wind Speed Profile Exponent {},Wind Speed Profile Boundary Layer Thickness {m},Air Temperature Gradient Coefficient {K/m}
Environment:Site Atmospheric Variation,0.220,370.000,6.500000E-003
! <Surface Geometry>,Starting Corner,Vertex Input Direction,Coordinate System,Daylight Reference Point Coordinate System,Rectangular (Simple) Surface Coordinate System
 Surface Geometry,UpperLeftCorner,Counterclockwise,RelativeCoordinateSystem,RelativeCoordinateSystem,RelativeToZoneOrigin
! <Surface Heat Transfer Algorithm>, Value {CTF - ConductionTransferFunction | EMPD - MoisturePenetrationDepthConductionTransferFunction | CondFD - ConductionFiniteDifference | HAMT - CombinedHeatAndMoistureFiniteElement} - Description,Inside Surface Max Temperature Limit{C}, Surface Convection Coefficient Lower Limit {W/m2-K}, Surface Convection Coefficient Upper Limit {W/m2-K}
Surface Heat Transfer Algorithm, CTF - ConductionTransferFunction,200,0.10,1000.0
! <Shading Summary>, Number of Fixed Detached Shades, Number of Building Detached Shades, Number of Attached Shades
 Shading Summary,0,0,0
! <Zone Summary>, Number of Zones, Number of Zone Surfaces, Number of SubSurfaces
 Zone Summary,18,126,18
! <Zone Information>,Zone Name,North Axis {deg},Origin X-Coordinate {m},Origin Y-Coordinate {m},Origin Z-Coordinate {m},Centroid X-Coordinate {m},Centroid Y-Coordinate {m},Centroid Z-Coordinate {m},Type,Zone Multiplier,Zone List Multiplier,Minimum X {m},Maximum X {m},Minimum Y {m},Maximum Y {m},Minimum Z {m},Maximum Z {m},Ceiling Height {m},Volume {m3},Zone Inside Convection Algorithm {Simple-Detailed-CeilingDiffuser-TrombeWall},Zone Outside Convection Algorithm {Simple-Detailed-Tarp-MoWitt-DOE-2-BLAST}, Floor Area {m2},Exterior Gross Wall Area {m2},Exterior Net Wall Area {m2},Exterior Window Area {m2}, Number of Surfaces, Number of SubSurfaces, Number of Shading SubSurfaces,  Part of Total Building Area
 Zone Information, ZONE RETAIL BACK_SPACE A  - STORY GROUND,0.0,30.39,-35.50,0.00,35.63,-33.21,3.05,1,1,1,30.39,40.87,-35.50,-30.93,0.00,6.10,6.10,292.02,TARP,DOE-2,47.90,63.87,59.40,4.47,6,1,0,Yes
 Zone Information, ZONE RETAIL BACK_SPACE A END_B - STORY GROUND,0.0,40.87,-35.50,0.00,43.15,-33.21,3.05,1,1,1,40.87,45.44,-35.50,-30.93,0.00,6.10,6.10,127.43,TARP,DOE-2,20.90,55.74,51.84,3.90,6,2,0,Yes
 Zone Information, ZONE RETAIL BACK_SPACE B  - STORY GROUND,0.0,30.39,-30.93,0.00,35.63,1.57E-014,3.05,1,1,1,30.39,40.87,-30.93,30.93,0.00,6.10,6.10,3950.74,TARP,DOE-2,648.09,0.00,0.00,0.00,6,0,0,Yes
 Zone Information, ZONE RETAIL BACK_SPACE B END_B - STORY GROUND,0.0,40.87,-30.93,0.00,43.15,1.57E-014,3.05,1,1,1,40.87,45.44,-30.93,30.93,0.00,6.10,6.10,1723.96,TARP,DOE-2,282.80,377.07,350.67,26.39,6,1,0,Yes
 Zone Information, ZONE RETAIL BACK_SPACE C  - STORY GROUND,0.0,30.39,30.93,0.00,35.63,33.21,3.05,1,1,1,30.39,40.87,30.93,35.50,0.00,6.10,6.10,292.02,TARP,DOE-2,47.90,63.87,59.40,4.47,6,1,0,Yes
 Zone Information, ZONE RETAIL BACK_SPACE C END_B - STORY GROUND,0.0,40.87,30.93,0.00,43.15,33.21,3.05,1,1,1,40.87,45.44,30.93,35.50,0.00,6.10,6.10,127.43,TARP,DOE-2,20.90,55.74,51.84,3.90,6,2,0,Yes
 Zone Information, ZONE RETAIL ENTRY A  - STORY GROUND,0.0,23.95,-35.50,0.00,24.18,-33.21,3.05,1,1,1,23.95,24.42,-35.50,-30.93,0.00,6.10,6.10,13.17,TARP,DOE-2,2.16,2.88,2.68,0.20,6,1,0,Yes
 Zone Information, ZONE RETAIL ENTRY B  - STORY GROUND,0.0,23.95,-30.93,0.00,24.18,1.60E-014,3.05,1,1,1,23.95,24.42,-30.93,30.93,0.00,6.10,6.10,178.19,TARP,DOE-2,29.23,0.00,0.00,0.00,6,0,0,Yes
 Zone Information, ZONE RETAIL ENTRY C  - STORY GROUND,0.0,23.95,30.93,0.00,24.18,33.21,3.05,1,1,1,23.95,24.42,30.93,35.50,0.00,6.10,6.10,13.17,TARP,DOE-2,2.16,2.88,2.68,0.20,6,1,0,Yes
 Zone Information, ZONE RETAIL POINT_OF_SALE A  - STORY GROUND,0.0,24.42,-35.50,0.00,27.40,-33.21,3.05,1,1,1,24.42,30.39,-35.50,-30.93,0.00,6.10,6.10,166.41,TARP,DOE-2,27.30,36.40,33.85,2.55,6,1,0,Yes
 Zone Information, ZONE RETAIL POINT_OF_SALE B  - STORY GROUND,0.0,24.42,-30.93,0.00,27.40,1.54E-014,3.05,1,1,1,24.42,30.39,-30.93,30.93,0.00,6.10,6.10,2251.37,TARP,DOE-2,369.32,0.00,0.00,0.00,6,0,0,Yes
 Zone Information, ZONE RETAIL POINT_OF_SALE C  - STORY GROUND,0.0,24.42,30.93,0.00,27.40,33.21,3.05,1,1,1,24.42,30.39,30.93,35.50,0.00,6.10,6.10,166.41,TARP,DOE-2,27.30,36.40,33.85,2.55,6,1,0,Yes
 Zone Information, ZONE RETAIL RETAIL A  - STORY GROUND,0.0,-40.87,-35.50,0.00,-8.46,-33.21,3.05,1,1,1,-40.87,23.95,-35.50,-30.93,0.00,6.10,6.10,1806.42,TARP,DOE-2,296.33,395.11,367.45,27.66,6,1,0,Yes
 Zone Information, ZONE RETAIL RETAIL A END_A - STORY GROUND,0.0,-45.44,-35.50,0.00,-43.15,-33.21,3.05,1,1,1,-45.44,-40.87,-35.50,-30.93,0.00,6.10,6.10,127.43,TARP,DOE-2,20.90,55.74,51.84,3.90,6,2,0,Yes
 Zone Information, ZONE RETAIL RETAIL B  - STORY GROUND,0.0,-40.87,-30.93,0.00,-8.46,1.59E-014,3.05,1,1,1,-40.87,23.95,-30.93,30.93,0.00,6.10,6.10,24439.27,TARP,DOE-2,4009.07,0.00,0.00,0.00,6,0,0,Yes
 Zone Information, ZONE RETAIL RETAIL B END_A - STORY GROUND,0.0,-45.44,-30.93,0.00,-43.15,1.61E-014,3.05,1,1,1,-45.44,-40.87,-30.93,30.93,0.00,6.10,6.10,1723.96,TARP,DOE-2,282.80,377.07,350.67,26.39,6,1,0,Yes
 Zone Information, ZONE RETAIL RETAIL C  - STORY GROUND,0.0,-40.87,30.93,0.00,-8.46,33.21,3.05,1,1,1,-40.87,23.95,30.93,35.50,0.00,6.10,6.10,1806.42,TARP,DOE-2,296.33,395.11,367.45,27.66,6,1,0,Yes
 Zone Information, ZONE RETAIL RETAIL C END_A - STORY GROUND,0.0,-45.44,30.93,0.00,-43.15,33.21,3.05,1,1,1,-45.44,-40.87,30.93,35.50,0.00,6.10,6.10,127.43,TARP,DOE-2,20.90,55.74,51.84,3.90,6,2,0,Yes
! <Zone Internal Gains Nominal>,Zone Name, Floor Area {m2},# Occupants,Area per Occupant {m2/person},Occupant per Area {person/m2},Interior Lighting {W/m2},Electric Load {W/m2},Gas Load {W/m2},Other Load {W/m2},Hot Water Eq {W/m2},Steam Equipment {W/m2},Sum Loads per Area {W/m2},Outdoor Controlled Baseboard Heat
 Zone Internal Gains Nominal, ZONE RETAIL BACK_SPACE A  - STORY GROUND,47.90,1.5,30.968,3.229E-002,6.631,2.153,0.000,0.000,0.000,0.000,8.783,No
 Zone Internal Gains Nominal, ZONE RETAIL BACK_SPACE A END_B - STORY GROUND,20.90,0.7,30.968,3.229E-002,6.631,2.153,0.000,0.000,0.000,0.000,8.783,No
 Zone Internal Gains Nominal, ZONE RETAIL BACK_SPACE B  - STORY GROUND,648.09,20.9,30.968,3.229E-002,6.631,2.153,0.000,0.000,0.000,0.000,8.783,No
 Zone Internal Gains Nominal, ZONE RETAIL BACK_SPACE B END_B - STORY GROUND,282.80,9.1,30.968,3.229E-002,6.631,2.153,0.000,0.000,0.000,0.000,8.783,No
 Zone Internal Gains Nominal, ZONE RETAIL BACK_SPACE C  - STORY GROUND,47.90,1.5,30.968,3.229E-002,6.631,2.153,0.000,0.000,0.000,0.000,8.783,No
 Zone Internal Gains Nominal, ZONE RETAIL BACK_SPACE C END_B - STORY GROUND,20.90,0.7,30.968,3.229E-002,6.631,2.153,0.000,0.000,0.000,0.000,8.783,No
 Zone Internal Gains Nominal, ZONE RETAIL ENTRY A  - STORY GROUND,2.16,0.8,2.814,0.355,25.317,10.764,0.000,0.000,0.000,0.000,36.081,No
 Zone Internal Gains Nominal, ZONE RETAIL ENTRY B  - STORY GROUND,29.23,10.4,2.814,0.355,25.317,10.764,0.000,0.000,0.000,0.000,36.081,No
 Zone Internal Gains Nominal, ZONE RETAIL ENTRY C  - STORY GROUND,2.16,0.8,2.814,0.355,25.317,10.764,0.000,0.000,0.000,0.000,36.081,No
 Zone Internal Gains Nominal, ZONE RETAIL POINT_OF_SALE A  - STORY GROUND,27.30,9.7,2.814,0.355,25.317,10.764,0.000,0.000,0.000,0.000,36.081,No
 Zone Internal Gains Nominal, ZONE RETAIL POINT_OF_SALE B  - STORY GROUND,369.32,131.2,2.814,0.355,25.317,10.764,0.000,0.000,0.000,0.000,36.081,No
 Zone Internal Gains Nominal, ZONE RETAIL POINT_OF_SALE C  - STORY GROUND,27.30,9.7,2.814,0.355,25.317,10.764,0.000,0.000,0.000,0.000,36.081,No
 Zone Internal Gains Nominal, ZONE RETAIL RETAIL A  - STORY GROUND,296.33,105.3,2.814,0.355,25.317,10.764,0.000,0.000,0.000,0.000,36.081,No
 Zone Internal Gains Nominal, ZONE RETAIL RETAIL A END_A - STORY GROUND,20.90,7.4,2.814,0.355,25.317,10.764,0.000,0.000,0.000,0.000,36.081,No
 Zone Internal Gains Nominal, ZONE RETAIL RETAIL B  - STORY GROUND,4009.07,1424.5,2.814,0.355,25.317,10.764,0.000,0.000,0.000,0.000,36.081,No
 Zone Internal Gains Nominal, ZONE RETAIL RETAIL B END_A - STORY GROUND,282.80,100.5,2.814,0.355,25.317,10.764,0.000,0.000,0.000,0.000,36.081,No
 Zone Internal Gains Nominal, ZONE RETAIL RETAIL C  - STORY GROUND,296.33,105.3,2.814,0.355,25.317,10.764,0.000,0.000,0.000,0.000,36.081,No
 Zone Internal Gains Nominal, ZONE RETAIL RETAIL C END_A - STORY GROUND,20.90,7.4,2.814,0.355,25.317,10.764,0.000,0.000,0.000,0.000,36.081,No
! <People Internal Gains Nominal>,Name,Schedule Name,Zone Name,Zone Floor Area {m2},# Zone Occupants,Number of People {},People/Floor Area {person/m2},Floor Area per person {m2/person},Fraction Radiant,Fraction Convected,Sensible Fraction Calculation,Activity level,ASHRAE 55 Warnings,Carbon Dioxide Generation Rate,Nominal Minimum Number of People,Nominal Maximum Number of People
 People Internal Gains Nominal, ZONE RETAIL BACK_SPACE A  - STORY GROUND RETAIL BACK_SPACE PEOPLE,RETAILOCCUPANCY,ZONE RETAIL BACK_SPACE A  - STORY GROUND,47.90,1.5,1.5,3.229E-002,30.968,0.300,0.700,AutoCalculate,RETAILPEOPLEACTIVITYLEVEL,No,3.8200E-008,0,2
 People Internal Gains Nominal, ZONE RETAIL BACK_SPACE A END_B - STORY GROUND RETAIL BACK_SPACE PEOPLE,RETAILOCCUPANCY,ZONE RETAIL BACK_SPACE A END_B - STORY GROUND,20.90,0.7,0.7,3.229E-002,30.968,0.300,0.700,AutoCalculate,RETAILPEOPLEACTIVITYLEVEL,No,3.8200E-008,0,1
 People Internal Gains Nominal, ZONE RETAIL BACK_SPACE B  - STORY GROUND RETAIL BACK_SPACE PEOPLE,RETAILOCCUPANCY,ZONE RETAIL BACK_SPACE B  - STORY GROUND,648.09,20.9,20.9,3.229E-002,30.968,0.300,0.700,AutoCalculate,RETAILPEOPLEACTIVITYLEVEL,No,3.8200E-008,0,21
 People Internal Gains Nominal, ZONE RETAIL BACK_SPACE B END_B - STORY GROUND RETAIL BACK_SPACE PEOPLE,RETAILOCCUPANCY,ZONE RETAIL BACK_SPACE B END_B - STORY GROUND,282.80,9.1,9.1,3.229E-002,30.968,0.300,0.700,AutoCalculate,RETAILPEOPLEACTIVITYLEVEL,No,3.8200E-008,0,9
 People Internal Gains Nominal, ZONE RETAIL BACK_SPACE C  - STORY GROUND RETAIL BACK_SPACE PEOPLE,RETAILOCCUPANCY,ZONE RETAIL BACK_SPACE C  - STORY GROUND,47.90,1.5,1.5,3.229E-002,30.968,0.300,0.700,AutoCalculate,RETAILPEOPLEACTIVITYLEVEL,No,3.8200E-008,0,2
 People Internal Gains Nominal, ZONE RETAIL BACK_SPACE C END_B - STORY GROUND RETAIL BACK_SPACE PEOPLE,RETAILOCCUPANCY,ZONE RETAIL BACK_SPACE C END_B - STORY GROUND,20.90,0.7,0.7,3.229E-002,30.968,0.300,0.700,AutoCalculate,RETAILPEOPLEACTIVITYLEVEL,No,3.8200E-008,0,1
 People Internal Gains Nominal, ZONE RETAIL ENTRY A  - STORY GROUND RETAIL ENTRY PEOPLE,RETAILOCCUPANCY,ZONE RETAIL ENTRY A  - STORY GROUND,2.16,0.8,0.8,0.355,2.814,0.300,0.700,AutoCalculate,RETAILPEOPLEACTIVITYLEVEL,No,3.8200E-008,0,1
 People Internal Gains Nominal, ZONE RETAIL ENTRY B  - STORY GROUND RETAIL ENTRY PEOPLE,RETAILOCCUPANCY,ZONE RETAIL ENTRY B  - STORY GROUND,29.23,10.4,10.4,0.355,2.814,0.300,0.700,AutoCalculate,RETAILPEOPLEACTIVITYLEVEL,No,3.8200E-008,0,10
 People Internal Gains Nominal, ZONE RETAIL ENTRY C  - STORY GROUND RETAIL ENTRY PEOPLE,RETAILOCCUPANCY,ZONE RETAIL ENTRY C  - STORY GROUND,2.16,0.8,0.8,0.355,2.814,0.300,0.700,AutoCalculate,RETAILPEOPLEACTIVITYLEVEL,No,3.8200E-008,0,1
 People Internal Gains Nominal, ZONE RETAIL POINT_OF_SALE A  - STORY GROUND RETAIL POINT_OF_SALE PEOPLE,RETAILOCCUPANCY,ZONE RETAIL POINT_OF_SALE A  - STORY GROUND,27.30,9.7,9.7,0.355,2.814,0.300,0.700,AutoCalculate,RETAILPEOPLEACTIVITYLEVEL,No,3.8200E-008,0,10
 People Internal Gains Nominal, ZONE RETAIL POINT_OF_SALE B  - STORY GROUND RETAIL POINT_OF_SALE PEOPLE,RETAILOCCUPANCY,ZONE RETAIL POINT_OF_SALE B  - STORY GROUND,369.32,131.2,131.2,0.355,2.814,0.300,0.700,AutoCalculate,RETAILPEOPLEACTIVITYLEVEL,No,3.8200E-008,0,131
 People Internal Gains Nominal, ZONE RETAIL POINT_OF_SALE C  - STORY GROUND RETAIL POINT_OF_SALE PEOPLE,RETAILOCCUPANCY,ZONE RETAIL POINT_OF_SALE C  - STORY GROUND,27.30,9.7,9.7,0.355,2.814,0.300,0.700,AutoCalculate,RETAILPEOPLEACTIVITYLEVEL,No,3.8200E-008,0,10
 People Internal Gains Nominal, ZONE RETAIL RETAIL A  - STORY GROUND RETAIL RETAIL PEOPLE,RETAILOCCUPANCY,ZONE RETAIL RETAIL A  - STORY GROUND,296.33,105.3,105.3,0.355,2.814,0.300,0.700,AutoCalculate,RETAILPEOPLEACTIVITYLEVEL,No,3.8200E-008,0,105
 People Internal Gains Nominal, ZONE RETAIL RETAIL A END_A - STORY GROUND RETAIL RETAIL PEOPLE,RETAILOCCUPANCY,ZONE RETAIL RETAIL A END_A - STORY GROUND,20.90,7.4,7.4,0.355,2.814,0.300,0.700,AutoCalculate,RETAILPEOPLEACTIVITYLEVEL,No,3.8200E-008,0,7
 People Internal Gains Nominal, ZONE RETAIL RETAIL B  - STORY GROUND RETAIL RETAIL PEOPLE,RETAILOCCUPANCY,ZONE RETAIL RETAIL B  - STORY GROUND,4009.07,1424.5,1424.5,0.355,2.814,0.300,0.700,AutoCalculate,RETAILPEOPLEACTIVITYLEVEL,No,3.8200E-008,0,1424
 People Internal Gains Nominal, ZONE RETAIL RETAIL B END_A - STORY GROUND RETAIL RETAIL PEOPLE,RETAILOCCUPANCY,ZONE RETAIL RETAIL B END_A - STORY GROUND,282.80,100.5,100.5,0.355,2.814,0.300,0.700,AutoCalculate,RETAILPEOPLEACTIVITYLEVEL,No,3.8200E-008,0,100
 People Internal Gains Nominal, ZONE RETAIL RETAIL C  - STORY GROUND RETAIL RETAIL PEOPLE,RETAILOCCUPANCY,ZONE RETAIL RETAIL C  - STORY GROUND,296.33,105.3,105.3,0.355,2.814,0.300,0.700,AutoCalculate,RETAILPEOPLEACTIVITYLEVEL,No,3.8200E-008,0,105
 People Internal Gains Nominal, ZONE RETAIL RETAIL C END_A - STORY GROUND RETAIL RETAIL PEOPLE,RETAILOCCUPANCY,ZONE RETAIL RETAIL C END_A - STORY GROUND,20.90,7.4,7.4,0.355,2.814,0.300,0.700,AutoCalculate,RETAILPEOPLEACTIVITYLEVEL,No,3.8200E-008,0,7
! <Lights Internal Gains Nominal>,Name,Schedule Name,Zone Name,Zone Floor Area {m2},# Zone Occupants,Lighting Level {W},Lights/Floor Area {W/m2},Lights per person {W/person},Fraction Return Air,Fraction Radiant,Fraction Short Wave,Fraction Convected,Fraction Replaceable,End-Use Category,Nominal Minimum Lighting Level {W},Nominal Maximum Lighting Level {W}
 Lights Internal Gains Nominal, ZONE RETAIL BACK_SPACE A  - STORY GROUND RETAIL BACK_SPACE LIGHTS 30.0 PERCENT REDUCTION,RETAILLIGHTS,ZONE RETAIL BACK_SPACE A  - STORY GROUND,47.90,1.5,317.626,6.631,205.333,0.000,0.700,0.200,0.100,1.000,General,0.000,317.626
 Lights Internal Gains Nominal, ZONE RETAIL BACK_SPACE A END_B - STORY GROUND RETAIL BACK_SPACE LIGHTS 30.0 PERCENT REDUCTION,RETAILLIGHTS,ZONE RETAIL BACK_SPACE A END_B - STORY GROUND,20.90,0.7,138.600,6.631,205.333,0.000,0.700,0.200,0.100,1.000,General,0.000,138.600
 Lights Internal Gains Nominal, ZONE RETAIL BACK_SPACE B  - STORY GROUND RETAIL BACK_SPACE LIGHTS 30.0 PERCENT REDUCTION,RETAILLIGHTS,ZONE RETAIL BACK_SPACE B  - STORY GROUND,648.09,20.9,4297.187,6.631,205.333,0.000,0.700,0.200,0.100,1.000,General,0.000,4297.187
 Lights Internal Gains Nominal, ZONE RETAIL BACK_SPACE B END_B - STORY GROUND RETAIL BACK_SPACE LIGHTS 30.0 PERCENT REDUCTION,RETAILLIGHTS,ZONE RETAIL BACK_SPACE B END_B - STORY GROUND,282.80,9.1,1875.133,6.631,205.333,0.000,0.700,0.200,0.100,1.000,General,0.000,1875.133
 Lights Internal Gains Nominal, ZONE RETAIL BACK_SPACE C  - STORY GROUND RETAIL BACK_SPACE LIGHTS 30.0 PERCENT REDUCTION,RETAILLIGHTS,ZONE RETAIL BACK_SPACE C  - STORY GROUND,47.90,1.5,317.626,6.631,205.333,0.000,0.700,0.200,0.100,1.000,General,0.000,317.626
 Lights Internal Gains Nominal, ZONE RETAIL BACK_SPACE C END_B - STORY GROUND RETAIL BACK_SPACE LIGHTS 30.0 PERCENT REDUCTION,RETAILLIGHTS,ZONE RETAIL BACK_SPACE C END_B - STORY GROUND,20.90,0.7,138.600,6.631,205.333,0.000,0.700,0.200,0.100,1.000,General,0.000,138.600
 Lights Internal Gains Nominal, ZONE RETAIL ENTRY A  - STORY GROUND RETAIL ENTRY LIGHTS 30.0 PERCENT REDUCTION,RETAILLIGHTS,ZONE RETAIL ENTRY A  - STORY GROUND,2.16,0.8,54.699,25.317,71.251,0.000,0.700,0.200,0.100,1.000,General,0.000,54.699
 Lights Internal Gains Nominal, ZONE RETAIL ENTRY B  - STORY GROUND RETAIL ENTRY LIGHTS 30.0 PERCENT REDUCTION,RETAILLIGHTS,ZONE RETAIL ENTRY B  - STORY GROUND,29.23,10.4,740.028,25.317,71.251,0.000,0.700,0.200,0.100,1.000,General,0.000,740.028
 Lights Internal Gains Nominal, ZONE RETAIL ENTRY C  - STORY GROUND RETAIL ENTRY LIGHTS 30.0 PERCENT REDUCTION,RETAILLIGHTS,ZONE RETAIL ENTRY C  - STORY GROUND,2.16,0.8,54.699,25.317,71.251,0.000,0.700,0.200,0.100,1.000,General,0.000,54.699
 Lights Internal Gains Nominal, ZONE RETAIL POINT_OF_SALE A  - STORY GROUND RETAIL POINT_OF_SALE LIGHTS 30.0 PERCENT REDUCTION,RETAILLIGHTS,ZONE RETAIL POINT_OF_SALE A  - STORY GROUND,27.30,9.7,691.101,25.317,71.251,0.000,0.700,0.200,0.100,1.000,General,0.000,691.101
 Lights Internal Gains Nominal, ZONE RETAIL POINT_OF_SALE B  - STORY GROUND RETAIL POINT_OF_SALE LIGHTS 30.0 PERCENT REDUCTION,RETAILLIGHTS,ZONE RETAIL POINT_OF_SALE B  - STORY GROUND,369.32,131.2,9349.966,25.317,71.251,0.000,0.700,0.200,0.100,1.000,General,0.000,9349.966
 Lights Internal Gains Nominal, ZONE RETAIL POINT_OF_SALE C  - STORY GROUND RETAIL POINT_OF_SALE LIGHTS 30.0 PERCENT REDUCTION,RETAILLIGHTS,ZONE RETAIL POINT_OF_SALE C  - STORY GROUND,27.30,9.7,691.101,25.317,71.251,0.000,0.700,0.200,0.100,1.000,General,0.000,691.101
 Lights Internal Gains Nominal, ZONE RETAIL RETAIL A  - STORY GROUND RETAIL RETAIL LIGHTS 30.0 PERCENT REDUCTION,RETAILLIGHTS,ZONE RETAIL RETAIL A  - STORY GROUND,296.33,105.3,7502.084,25.317,71.251,0.000,0.700,0.200,0.100,1.000,General,0.000,7502.084
 Lights Internal Gains Nominal, ZONE RETAIL RETAIL A END_A - STORY GROUND RETAIL RETAIL LIGHTS 30.0 PERCENT REDUCTION,RETAILLIGHTS,ZONE RETAIL RETAIL A END_A - STORY GROUND,20.90,7.4,529.200,25.317,71.251,0.000,0.700,0.200,0.100,1.000,General,0.000,529.200
 Lights Internal Gains Nominal, ZONE RETAIL RETAIL B  - STORY GROUND RETAIL RETAIL LIGHTS 30.0 PERCENT REDUCTION,RETAILLIGHTS,ZONE RETAIL RETAIL B  - STORY GROUND,4009.07,1424.5,101496.403,25.317,71.251,0.000,0.700,0.200,0.100,1.000,General,0.000,101496.403
 Lights Internal Gains Nominal, ZONE RETAIL RETAIL B END_A - STORY GROUND RETAIL RETAIL LIGHTS 30.0 PERCENT REDUCTION,RETAILLIGHTS,ZONE RETAIL RETAIL B END_A - STORY GROUND,282.80,100.5,7159.597,25.317,71.251,0.000,0.700,0.200,0.100,1.000,General,0.000,7159.597
 Lights Internal Gains Nominal, ZONE RETAIL RETAIL C  - STORY GROUND RETAIL RETAIL LIGHTS 30.0 PERCENT REDUCTION,RETAILLIGHTS,ZONE RETAIL RETAIL C  - STORY GROUND,296.33,105.3,7502.084,25.317,71.251,0.000,0.700,0.200,0.100,1.000,General,0.000,7502.084
 Lights Internal Gains Nominal, ZONE RETAIL RETAIL C END_A - STORY GROUND RETAIL RETAIL LIGHTS 30.0 PERCENT REDUCTION,RETAILLIGHTS,ZONE RETAIL RETAIL C END_A - STORY GROUND,20.90,7.4,529.200,25.317,71.251,0.000,0.700,0.200,0.100,1.000,General,0.000,529.200
! <ElectricEquipment Internal Gains Nominal>,Name,Schedule Name,Zone Name,Zone Floor Area {m2},# Zone Occupants,Equipment Level {W},Equipment/Floor Area {W/m2},Equipment per person {W/person},Fraction Latent,Fraction Radiant,Fraction Lost,Fraction Convected,End-Use SubCategory,Nominal Minimum Equipment Level {W},Nominal Maximum Equipment Level {W}
 ElectricEquipment Internal Gains Nominal, ZONE RETAIL BACK_SPACE A  - STORY GROUND RETAIL BACK_SPACE ELEC EQUIP,RETAILRECEPTACLE,ZONE RETAIL BACK_SPACE A  - STORY GROUND,47.90,1.5,103.125,2.153,66.667,0.000,0.200,0.000,0.800,General,0.000,103.125
 ElectricEquipment Internal Gains Nominal, ZONE RETAIL BACK_SPACE A END_B - STORY GROUND RETAIL BACK_SPACE ELEC EQUIP,RETAILRECEPTACLE,ZONE RETAIL BACK_SPACE A END_B - STORY GROUND,20.90,0.7,45.000,2.153,66.667,0.000,0.200,0.000,0.800,General,0.000,45.000
 ElectricEquipment Internal Gains Nominal, ZONE RETAIL BACK_SPACE B  - STORY GROUND RETAIL BACK_SPACE ELEC EQUIP,RETAILRECEPTACLE,ZONE RETAIL BACK_SPACE B  - STORY GROUND,648.09,20.9,1395.191,2.153,66.667,0.000,0.200,0.000,0.800,General,0.000,1395.191
 ElectricEquipment Internal Gains Nominal, ZONE RETAIL BACK_SPACE B END_B - STORY GROUND RETAIL BACK_SPACE ELEC EQUIP,RETAILRECEPTACLE,ZONE RETAIL BACK_SPACE B END_B - STORY GROUND,282.80,9.1,608.809,2.153,66.667,0.000,0.200,0.000,0.800,General,0.000,608.809
 ElectricEquipment Internal Gains Nominal, ZONE RETAIL BACK_SPACE C  - STORY GROUND RETAIL BACK_SPACE ELEC EQUIP,RETAILRECEPTACLE,ZONE RETAIL BACK_SPACE C  - STORY GROUND,47.90,1.5,103.125,2.153,66.667,0.000,0.200,0.000,0.800,General,0.000,103.125
 ElectricEquipment Internal Gains Nominal, ZONE RETAIL BACK_SPACE C END_B - STORY GROUND RETAIL BACK_SPACE ELEC EQUIP,RETAILRECEPTACLE,ZONE RETAIL BACK_SPACE C END_B - STORY GROUND,20.90,0.7,45.000,2.153,66.667,0.000,0.200,0.000,0.800,General,0.000,45.000
 ElectricEquipment Internal Gains Nominal, ZONE RETAIL ENTRY A  - STORY GROUND RETAIL ENTRY ELEC EQUIP,RETAILRECEPTACLE,ZONE RETAIL ENTRY A  - STORY GROUND,2.16,0.8,23.256,10.764,30.294,0.000,0.200,0.000,0.800,General,0.000,23.256
 ElectricEquipment Internal Gains Nominal, ZONE RETAIL ENTRY B  - STORY GROUND RETAIL ENTRY ELEC EQUIP,RETAILRECEPTACLE,ZONE RETAIL ENTRY B  - STORY GROUND,29.23,10.4,314.638,10.764,30.294,0.000,0.200,0.000,0.800,General,0.000,314.638
 ElectricEquipment Internal Gains Nominal, ZONE RETAIL ENTRY C  - STORY GROUND RETAIL ENTRY ELEC EQUIP,RETAILRECEPTACLE,ZONE RETAIL ENTRY C  - STORY GROUND,2.16,0.8,23.256,10.764,30.294,0.000,0.200,0.000,0.800,General,0.000,23.256
 ElectricEquipment Internal Gains Nominal, ZONE RETAIL POINT_OF_SALE A  - STORY GROUND RETAIL POINT_OF_SALE ELEC EQUIP,RETAILRECEPTACLE,ZONE RETAIL POINT_OF_SALE A  - STORY GROUND,27.30,9.7,293.835,10.764,30.294,0.000,0.200,0.000,0.800,General,0.000,293.835
 ElectricEquipment Internal Gains Nominal, ZONE RETAIL POINT_OF_SALE B  - STORY GROUND RETAIL POINT_OF_SALE ELEC EQUIP,RETAILRECEPTACLE,ZONE RETAIL POINT_OF_SALE B  - STORY GROUND,369.32,131.2,3975.326,10.764,30.294,0.000,0.200,0.000,0.800,General,0.000,3975.326
 ElectricEquipment Internal Gains Nominal, ZONE RETAIL POINT_OF_SALE C  - STORY GROUND RETAIL POINT_OF_SALE ELEC EQUIP,RETAILRECEPTACLE,ZONE RETAIL POINT_OF_SALE C  - STORY GROUND,27.30,9.7,293.835,10.764,30.294,0.000,0.200,0.000,0.800,General,0.000,293.835
 ElectricEquipment Internal Gains Nominal, ZONE RETAIL RETAIL A  - STORY GROUND RETAIL RETAIL ELEC EQUIP,RETAILRECEPTACLE,ZONE RETAIL RETAIL A  - STORY GROUND,296.33,105.3,3189.662,10.764,30.294,0.000,0.200,0.000,0.800,General,0.000,3189.662
 ElectricEquipment Internal Gains Nominal, ZONE RETAIL RETAIL A END_A - STORY GROUND RETAIL RETAIL ELEC EQUIP,RETAILRECEPTACLE,ZONE RETAIL RETAIL A END_A - STORY GROUND,20.90,7.4,225.000,10.764,30.294,0.000,0.200,0.000,0.800,General,0.000,225.000
 ElectricEquipment Internal Gains Nominal, ZONE RETAIL RETAIL B  - STORY GROUND RETAIL RETAIL ELEC EQUIP,RETAILRECEPTACLE,ZONE RETAIL RETAIL B  - STORY GROUND,4009.07,1424.5,43153.233,10.764,30.294,0.000,0.200,0.000,0.800,General,0.000,43153.233
 ElectricEquipment Internal Gains Nominal, ZONE RETAIL RETAIL B END_A - STORY GROUND RETAIL RETAIL ELEC EQUIP,RETAILRECEPTACLE,ZONE RETAIL RETAIL B END_A - STORY GROUND,282.80,100.5,3044.046,10.764,30.294,0.000,0.200,0.000,0.800,General,0.000,3044.046
 ElectricEquipment Internal Gains Nominal, ZONE RETAIL RETAIL C  - STORY GROUND RETAIL RETAIL ELEC EQUIP,RETAILRECEPTACLE,ZONE RETAIL RETAIL C  - STORY GROUND,296.33,105.3,3189.662,10.764,30.294,0.000,0.200,0.000,0.800,General,0.000,3189.662
 ElectricEquipment Internal Gains Nominal, ZONE RETAIL RETAIL C END_A - STORY GROUND RETAIL RETAIL ELEC EQUIP,RETAILRECEPTACLE,ZONE RETAIL RETAIL C END_A - STORY GROUND,20.90,7.4,225.000,10.764,30.294,0.000,0.200,0.000,0.800,General,0.000,225.000
! <Shadowing/Sun Position Calculations Annual Simulations>, Calculation Method, Value {days}, Allowable Number Figures in Shadow Overlap {}, Polygon Clipping Algorithm, Sky Diffuse Modeling Algorithm
Shadowing/Sun Position Calculations Annual Simulations,AverageOverDaysInFrequency,20,15000,SutherlandHodgman,SimpleSkyDiffuseModeling
! <ZoneInfiltration Airflow Stats Nominal>,Name,Schedule Name,Zone Name, Zone Floor Area {m2}, # Zone Occupants,Design Volume Flow Rate {m3/s},Volume Flow Rate/Floor Area {m3/s/m2},Volume Flow Rate/Exterior Surface Area {m3/s/m2},ACH - Air Changes per Hour,Equation A - Constant Term Coefficient {},Equation B - Temperature Term Coefficient {1/C},Equation C - Velocity Term Coefficient {s/m}, Equation D - Velocity Squared Term Coefficient {s2/m2}
 ZoneInfiltration Airflow Stats Nominal, ZONE RETAIL BACK_SPACE A  - STORY GROUND RETAIL BACK_SPACE INFILTRATION,RETAILINFILTRATION,ZONE RETAIL BACK_SPACE A  - STORY GROUND,47.90,1.5,0.125,2.608E-003,1.118E-003,1.540,1.000,0.000,0.000,0.000
 ZoneInfiltration Airflow Stats Nominal, ZONE RETAIL BACK_SPACE A END_B - STORY GROUND RETAIL BACK_SPACE INFILTRATION,RETAILINFILTRATION,ZONE RETAIL BACK_SPACE A END_B - STORY GROUND,20.90,0.7,8.566E-002,4.098E-003,1.118E-003,2.420,1.000,0.000,0.000,0.000
 ZoneInfiltration Airflow Stats Nominal, ZONE RETAIL BACK_SPACE B  - STORY GROUND RETAIL BACK_SPACE INFILTRATION,RETAILINFILTRATION,ZONE RETAIL BACK_SPACE B  - STORY GROUND,648.09,20.9,0.724,1.118E-003,1.118E-003,0.660,1.000,0.000,0.000,0.000
 ZoneInfiltration Airflow Stats Nominal, ZONE RETAIL BACK_SPACE B END_B - STORY GROUND RETAIL BACK_SPACE INFILTRATION,RETAILINFILTRATION,ZONE RETAIL BACK_SPACE B END_B - STORY GROUND,282.80,9.1,0.737,2.608E-003,1.118E-003,1.540,1.000,0.000,0.000,0.000
 ZoneInfiltration Airflow Stats Nominal, ZONE RETAIL BACK_SPACE C  - STORY GROUND RETAIL BACK_SPACE INFILTRATION,RETAILINFILTRATION,ZONE RETAIL BACK_SPACE C  - STORY GROUND,47.90,1.5,0.125,2.608E-003,1.118E-003,1.540,1.000,0.000,0.000,0.000
 ZoneInfiltration Airflow Stats Nominal, ZONE RETAIL BACK_SPACE C END_B - STORY GROUND RETAIL BACK_SPACE INFILTRATION,RETAILINFILTRATION,ZONE RETAIL BACK_SPACE C END_B - STORY GROUND,20.90,0.7,8.566E-002,4.098E-003,1.118E-003,2.420,1.000,0.000,0.000,0.000
 ZoneInfiltration Airflow Stats Nominal, ZONE RETAIL ENTRY A  - STORY GROUND RETAIL ENTRY INFILTRATION,RETAILINFILTRATION,ZONE RETAIL ENTRY A  - STORY GROUND,2.16,0.8,5.634E-003,2.608E-003,1.118E-003,1.540,1.000,0.000,0.000,0.000
 ZoneInfiltration Airflow Stats Nominal, ZONE RETAIL ENTRY B  - STORY GROUND RETAIL ENTRY INFILTRATION,RETAILINFILTRATION,ZONE RETAIL ENTRY B  - STORY GROUND,29.23,10.4,3.267E-002,1.118E-003,1.118E-003,0.660,1.000,0.000,0.000,0.000
 ZoneInfiltration Airflow Stats Nominal, ZONE RETAIL ENTRY C  - STORY GROUND RETAIL ENTRY INFILTRATION,RETAILINFILTRATION,ZONE RETAIL ENTRY C  - STORY GROUND,2.16,0.8,5.634E-003,2.608E-003,1.118E-003,1.540,1.000,0.000,0.000,0.000
 ZoneInfiltration Airflow Stats Nominal, ZONE RETAIL POINT_OF_SALE A  - STORY GROUND RETAIL POINT_OF_SALE INFILTRATION,RETAILINFILTRATION,ZONE RETAIL POINT_OF_SALE A  - STORY GROUND,27.30,9.7,7.119E-002,2.608E-003,1.118E-003,1.540,1.000,0.000,0.000,0.000
 ZoneInfiltration Airflow Stats Nominal, ZONE RETAIL POINT_OF_SALE B  - STORY GROUND RETAIL POINT_OF_SALE INFILTRATION,RETAILINFILTRATION,ZONE RETAIL POINT_OF_SALE B  - STORY GROUND,369.32,131.2,0.413,1.118E-003,1.118E-003,0.660,1.000,0.000,0.000,0.000
 ZoneInfiltration Airflow Stats Nominal, ZONE RETAIL POINT_OF_SALE C  - STORY GROUND RETAIL POINT_OF_SALE INFILTRATION,RETAILINFILTRATION,ZONE RETAIL POINT_OF_SALE C  - STORY GROUND,27.30,9.7,7.119E-002,2.608E-003,1.118E-003,1.540,1.000,0.000,0.000,0.000
 ZoneInfiltration Airflow Stats Nominal, ZONE RETAIL RETAIL A  - STORY GROUND RETAIL RETAIL INFILTRATION,RETAILINFILTRATION,ZONE RETAIL RETAIL A  - STORY GROUND,296.33,105.3,0.773,2.608E-003,1.118E-003,1.540,1.000,0.000,0.000,0.000
 ZoneInfiltration Airflow Stats Nominal, ZONE RETAIL RETAIL A END_A - STORY GROUND RETAIL RETAIL INFILTRATION,RETAILINFILTRATION,ZONE RETAIL RETAIL A END_A - STORY GROUND,20.90,7.4,8.566E-002,4.098E-003,1.118E-003,2.420,1.000,0.000,0.000,0.000
 ZoneInfiltration Airflow Stats Nominal, ZONE RETAIL RETAIL B  - STORY GROUND RETAIL RETAIL INFILTRATION,RETAILINFILTRATION,ZONE RETAIL RETAIL B  - STORY GROUND,4009.07,1424.5,4.481,1.118E-003,1.118E-003,0.660,1.000,0.000,0.000,0.000
 ZoneInfiltration Airflow Stats Nominal, ZONE RETAIL RETAIL B END_A - STORY GROUND RETAIL RETAIL INFILTRATION,RETAILINFILTRATION,ZONE RETAIL RETAIL B END_A - STORY GROUND,282.80,100.5,0.737,2.608E-003,1.118E-003,1.540,1.000,0.000,0.000,0.000
 ZoneInfiltration Airflow Stats Nominal, ZONE RETAIL RETAIL C  - STORY GROUND RETAIL RETAIL INFILTRATION,RETAILINFILTRATION,ZONE RETAIL RETAIL C  - STORY GROUND,296.33,105.3,0.773,2.608E-003,1.118E-003,1.540,1.000,0.000,0.000,0.000
 ZoneInfiltration Airflow Stats Nominal, ZONE RETAIL RETAIL C END_A - STORY GROUND RETAIL RETAIL INFILTRATION,RETAILINFILTRATION,ZONE RETAIL RETAIL C END_A - STORY GROUND,20.90,7.4,8.566E-002,4.098E-003,1.118E-003,2.420,1.000,0.000,0.000,0.000
! <AirFlow Model>, Simple
 AirFlow Model, Simple
! <RoomAir Model>, Zone Name, Mixing/Mundt/UCSDDV/UCSDCV/UCSDUFI/UCSDUFE/User Defined
RoomAir Model,ZONE RETAIL BACK_SPACE A  - STORY GROUND,Mixing/Well-Stirred
RoomAir Model,ZONE RETAIL BACK_SPACE A END_B - STORY GROUND,Mixing/Well-Stirred
RoomAir Model,ZONE RETAIL BACK_SPACE B  - STORY GROUND,Mixing/Well-Stirred
RoomAir Model,ZONE RETAIL BACK_SPACE B END_B - STORY GROUND,Mixing/Well-Stirred
RoomAir Model,ZONE RETAIL BACK_SPACE C  - STORY GROUND,Mixing/Well-Stirred
RoomAir Model,ZONE RETAIL BACK_SPACE C END_B - STORY GROUND,Mixing/Well-Stirred
RoomAir Model,ZONE RETAIL ENTRY A  - STORY GROUND,Mixing/Well-Stirred
RoomAir Model,ZONE RETAIL ENTRY B  - STORY GROUND,Mixing/Well-Stirred
RoomAir Model,ZONE RETAIL ENTRY C  - STORY GROUND,Mixing/Well-Stirred
RoomAir Model,ZONE RETAIL POINT_OF_SALE A  - STORY GROUND,Mixing/Well-Stirred
RoomAir Model,ZONE RETAIL POINT_OF_SALE B  - STORY GROUND,Mixing/Well-Stirred
RoomAir Model,ZONE RETAIL POINT_OF_SALE C  - STORY GROUND,Mixing/Well-Stirred
RoomAir Model,ZONE RETAIL RETAIL A  - STORY GROUND,Mixing/Well-Stirred
RoomAir Model,ZONE RETAIL RETAIL A END_A - STORY GROUND,Mixing/Well-Stirred
RoomAir Model,ZONE RETAIL RETAIL B  - STORY GROUND,Mixing/Well-Stirred
RoomAir Model,ZONE RETAIL RETAIL B END_A - STORY GROUND,Mixing/Well-Stirred
RoomAir Model,ZONE RETAIL RETAIL C  - STORY GROUND,Mixing/Well-Stirred
RoomAir Model,ZONE RETAIL RETAIL C END_A - STORY GROUND,Mixing/Well-Stirred
! <AirflowNetwork Model:Control>, No Multizone or Distribution/Multizone with Distribution/Multizone without Distribution/Multizone with Distribution only during Fan Operation
AirflowNetwork Model:Control,NoMultizoneOrDistribution
! <Zone Volume Capacitance Multiplier>, Sensible Heat Capacity Multiplier, Moisture Capacity Multiplier, Carbon Dioxide Capacity Multiplier, Generic Contaminant Capacity Multiplier
Zone Volume Capacitance Multiplier,   1.000 ,   1.000,   1.000,   1.000
! <Load Timesteps in Zone Design Calculation Averaging Window>, Value
 Load Timesteps in Zone Design Calculation Averaging Window,    6
! <Heating Sizing Factor Information>, Sizing Factor ID, Value
 Heating Sizing Factor Information, Global,   1.2500    
 Heating Sizing Factor Information, Zone ZONE RETAIL BACK_SPACE A  - STORY GROUND,   1.2500    
 Heating Sizing Factor Information, Zone ZONE RETAIL BACK_SPACE A END_B - STORY GROUND,   1.2500    
 Heating Sizing Factor Information, Zone ZONE RETAIL BACK_SPACE B  - STORY GROUND,   1.2500    
 Heating Sizing Factor Information, Zone ZONE RETAIL BACK_SPACE B END_B - STORY GROUND,   1.2500    
 Heating Sizing Factor Information, Zone ZONE RETAIL BACK_SPACE C  - STORY GROUND,   1.2500    
 Heating Sizing Factor Information, Zone ZONE RETAIL BACK_SPACE C END_B - STORY GROUND,   1.2500    
 Heating Sizing Factor Information, Zone ZONE RETAIL ENTRY A  - STORY GROUND,   1.2500    
 Heating Sizing Factor Information, Zone ZONE RETAIL ENTRY B  - STORY GROUND,   1.2500    
 Heating Sizing Factor Information, Zone ZONE RETAIL ENTRY C  - STORY GROUND,   1.2500    
 Heating Sizing Factor Information, Zone ZONE RETAIL POINT_OF_SALE A  - STORY GROUND,   1.2500    
 Heating Sizing Factor Information, Zone ZONE RETAIL POINT_OF_SALE B  - STORY GROUND,   1.2500    
 Heating Sizing Factor Information, Zone ZONE RETAIL POINT_OF_SALE C  - STORY GROUND,   1.2500    
 Heating Sizing Factor Information, Zone ZONE RETAIL RETAIL A  - STORY GROUND,   1.2500    
 Heating Sizing Factor Information, Zone ZONE RETAIL RETAIL A END_A - STORY GROUND,   1.2500    
 Heating Sizing Factor Information, Zone ZONE RETAIL RETAIL B  - STORY GROUND,   1.2500    
 Heating Sizing Factor Information, Zone ZONE RETAIL RETAIL B END_A - STORY GROUND,   1.2500    
 Heating Sizing Factor Information, Zone ZONE RETAIL RETAIL C  - STORY GROUND,   1.2500    
 Heating Sizing Factor Information, Zone ZONE RETAIL RETAIL C END_A - STORY GROUND,   1.2500    
! <Cooling Sizing Factor Information>, Sizing Factor ID, Value
 Cooling Sizing Factor Information, Global,   1.1500    
 Cooling Sizing Factor Information, Zone ZONE RETAIL BACK_SPACE A  - STORY GROUND,   1.1500    
 Cooling Sizing Factor Information, Zone ZONE RETAIL BACK_SPACE A END_B - STORY GROUND,   1.1500    
 Cooling Sizing Factor Information, Zone ZONE RETAIL BACK_SPACE B  - STORY GROUND,   1.1500    
 Cooling Sizing Factor Information, Zone ZONE RETAIL BACK_SPACE B END_B - STORY GROUND,   1.1500    
 Cooling Sizing Factor Information, Zone ZONE RETAIL BACK_SPACE C  - STORY GROUND,   1.1500    
 Cooling Sizing Factor Information, Zone ZONE RETAIL BACK_SPACE C END_B - STORY GROUND,   1.1500    
 Cooling Sizing Factor Information, Zone ZONE RETAIL ENTRY A  - STORY GROUND,   1.1500    
 Cooling Sizing Factor Information, Zone ZONE RETAIL ENTRY B  - STORY GROUND,   1.1500    
 Cooling Sizing Factor Information, Zone ZONE RETAIL ENTRY C  - STORY GROUND,   1.1500    
 Cooling Sizing Factor Information, Zone ZONE RETAIL POINT_OF_SALE A  - STORY GROUND,   1.1500    
 Cooling Sizing Factor Information, Zone ZONE RETAIL POINT_OF_SALE B  - STORY GROUND,   1.1500    
 Cooling Sizing Factor Information, Zone ZONE RETAIL POINT_OF_SALE C  - STORY GROUND,   1.1500    
 Cooling Sizing Factor Information, Zone ZONE RETAIL RETAIL A  - STORY GROUND,   1.1500    
 Cooling Sizing Factor Information, Zone ZONE RETAIL RETAIL A END_A - STORY GROUND,   1.1500    
 Cooling Sizing Factor Information, Zone ZONE RETAIL RETAIL B  - STORY GROUND,   1.1500    
 Cooling Sizing Factor Information, Zone ZONE RETAIL RETAIL B END_A - STORY GROUND,   1.1500    
 Cooling Sizing Factor Information, Zone ZONE RETAIL RETAIL C  - STORY GROUND,   1.1500    
 Cooling Sizing Factor Information, Zone ZONE RETAIL RETAIL C END_A - STORY GROUND,   1.1500    
! <Zone Sizing Information>, Zone Name, Load Type, Calc Des Load {W}, User Des Load {W}, Calc Des Air Flow Rate {m3/s}, User Des Air Flow Rate {m3/s}, Design Day Name, Date/Time of Peak, Temperature at Peak {C}, Humidity Ratio at Peak {kgWater/kgDryAir}, Floor Area {m2}, # Occupants, Calc Outdoor Air Flow Rate {m3/s}, Calc DOAS Heat Addition Rate {W}
 Zone Sizing Information, ZONE RETAIL BACK_SPACE A  - STORY GROUND, Cooling, 2244.22859, 2580.86288, 0.16307, 0.18753, CLIMATE ZONE 3 ANN CLG .4% CONDNS DB=>MWB, 8/21 13:30:00, 27.51500, 9.30032E-003, 47.90322, 1.54688, 4.74529E-002, 0.00000
 Zone Sizing Information, ZONE RETAIL BACK_SPACE A  - STORY GROUND, Heating, 3689.80046, 4612.25058, 0.15813, 0.19766, CLIMATE ZONE 3 ANN HTG 99.6% CONDNS DB, 1/21 07:50:00, 2.90000, 4.65595E-003, 47.90322, 1.54688, 4.74529E-002, 0.00000
 Zone Sizing Information, ZONE RETAIL BACK_SPACE A END_B - STORY GROUND, Cooling, 1414.99524, 1627.24452, 0.10282, 0.11824, CLIMATE ZONE 3 ANN CLG .4% CONDNS DB=>MWB, 8/21 11:00:00, 25.99800, 9.30032E-003, 20.90318, 0.67500, 2.07067E-002, 0.00000
 Zone Sizing Information, ZONE RETAIL BACK_SPACE A END_B - STORY GROUND, Heating, 2594.83474, 3243.54343, 0.11119, 0.13898, CLIMATE ZONE 3 ANN HTG 99.6% CONDNS DB, 1/21 16:20:00, 2.90000, 4.65595E-003, 20.90318, 0.67500, 2.07067E-002, 0.00000
 Zone Sizing Information, ZONE RETAIL BACK_SPACE B  - STORY GROUND, Cooling, 14265.52062, 16405.34871, 0.98413, 1.13174, CLIMATE ZONE 3 ANN CLG .4% CONDNS DB=>MWB, 8/21 07:00:00, 20.96600, 9.30032E-003, 648.08723, 20.92786, 0.64200, 0.00000
 Zone Sizing Information, ZONE RETAIL BACK_SPACE B  - STORY GROUND, Heating, 19968.95570, 24961.19462, 0.85591, 1.06989, CLIMATE ZONE 3 ANN HTG 99.6% CONDNS DB, 1/21 04:20:00, 2.90000, 4.65595E-003, 648.08723, 20.92786, 0.64200, 0.00000
 Zone Sizing Information, ZONE RETAIL BACK_SPACE B END_B - STORY GROUND, Cooling, 13863.23527, 15942.72055, 1.00732, 1.15842, CLIMATE ZONE 3 ANN CLG .4% CONDNS DB=>MWB, 8/21 09:50:00, 24.67833, 9.30032E-003, 282.80115, 9.13214, 0.28014, 0.00000
 Zone Sizing Information, ZONE RETAIL BACK_SPACE B END_B - STORY GROUND, Heating, 21689.99055, 27112.48819, 0.92951, 1.16189, CLIMATE ZONE 3 ANN HTG 99.6% CONDNS DB, 1/21 21:30:00, 2.90000, 4.65595E-003, 282.80115, 9.13214, 0.28014, 0.00000
 Zone Sizing Information, ZONE RETAIL BACK_SPACE C  - STORY GROUND, Cooling, 1316.87076, 1514.40138, 9.56850E-002, 0.11004, CLIMATE ZONE 3 ANN CLG .4% CONDNS DB=>MWB, 8/21 14:10:00, 27.70000, 9.30032E-003, 47.90322, 1.54688, 4.74529E-002, 0.00000
 Zone Sizing Information, ZONE RETAIL BACK_SPACE C  - STORY GROUND, Heating, 3688.18054, 4610.22567, 0.15806, 0.19757, CLIMATE ZONE 3 ANN HTG 99.6% CONDNS DB, 1/21 02:50:00, 2.90000, 4.65595E-003, 47.90322, 1.54688, 4.74529E-002, 0.00000
 Zone Sizing Information, ZONE RETAIL BACK_SPACE C END_B - STORY GROUND, Cooling, 1170.24647, 1345.78344, 8.50320E-002, 9.77868E-002, CLIMATE ZONE 3 ANN CLG .4% CONDNS DB=>MWB, 8/21 10:20:00, 25.25800, 9.30032E-003, 20.90318, 0.67500, 2.07067E-002, 0.00000
 Zone Sizing Information, ZONE RETAIL BACK_SPACE C END_B - STORY GROUND, Heating, 2594.10900, 3242.63625, 0.11116, 0.13895, CLIMATE ZONE 3 ANN HTG 99.6% CONDNS DB, 1/21 09:20:00, 2.90000, 4.65595E-003, 20.90318, 0.67500, 2.07067E-002, 0.00000
 Zone Sizing Information, ZONE RETAIL ENTRY A  - STORY GROUND, Cooling, 837.73389, 963.39398, 5.99933E-002, 6.89923E-002, CLIMATE ZONE 3 ANN CLG .4% CONDNS DB=>MWB, 8/21 07:00:00, 20.96600, 9.30032E-003, 2.16059, 0.76769, 8.72740E-003, 0.00000
 Zone Sizing Information, ZONE RETAIL ENTRY A  - STORY GROUND, Heating, 135.22977, 169.03721, 5.79663E-003, 8.72740E-003, CLIMATE ZONE 3 ANN HTG 99.6% CONDNS DB, 1/21 10:10:00, 2.90000, 4.65595E-003, 2.16059, 0.76769, 8.72740E-003, 0.00000
 Zone Sizing Information, ZONE RETAIL ENTRY B  - STORY GROUND, Cooling, 12905.86450, 14841.74418, 0.92504, 1.06379, CLIMATE ZONE 3 ANN CLG .4% CONDNS DB=>MWB, 8/21 07:00:00, 20.96600, 9.30032E-003, 29.23079, 10.38619, 0.11807, 0.00000
 Zone Sizing Information, ZONE RETAIL ENTRY B  - STORY GROUND, Heating, 84.98656, 106.23320, 3.64324E-003, 0.11807, CLIMATE ZONE 3 ANN HTG 99.6% CONDNS DB, 1/21 20:40:00, 2.90000, 4.65595E-003, 29.23079, 10.38619, 0.11807, 0.00000
 Zone Sizing Information, ZONE RETAIL ENTRY C  - STORY GROUND, Cooling, 844.27060, 970.91118, 6.04685E-002, 6.95388E-002, CLIMATE ZONE 3 ANN CLG .4% CONDNS DB=>MWB, 8/21 07:00:00, 20.96600, 9.30032E-003, 2.16059, 0.76769, 8.72740E-003, 0.00000
 Zone Sizing Information, ZONE RETAIL ENTRY C  - STORY GROUND, Heating, 135.07191, 168.83989, 5.78987E-003, 8.72740E-003, CLIMATE ZONE 3 ANN HTG 99.6% CONDNS DB, 1/21 15:40:00, 2.90000, 4.65595E-003, 2.16059, 0.76769, 8.72740E-003, 0.00000
 Zone Sizing Information, ZONE RETAIL POINT_OF_SALE A  - STORY GROUND, Cooling, 2764.78713, 3179.50519, 0.18870, 0.21701, CLIMATE ZONE 3 ANN CLG .4% CONDNS DB=>MWB, 8/21 07:00:00, 20.96600, 9.30032E-003, 27.29819, 9.69950, 0.11027, 0.00000
 Zone Sizing Information, ZONE RETAIL POINT_OF_SALE A  - STORY GROUND, Heating, 1392.81757, 1741.02197, 5.97010E-002, 0.11027, CLIMATE ZONE 3 ANN HTG 99.6% CONDNS DB, 1/21 18:20:00, 2.90000, 4.65595E-003, 27.29819, 9.69950, 0.11027, 0.00000
 Zone Sizing Information, ZONE RETAIL POINT_OF_SALE B  - STORY GROUND, Cooling, 33694.03482, 38748.14004, 2.24353, 2.58006, CLIMATE ZONE 3 ANN CLG .4% CONDNS DB=>MWB, 8/21 07:00:00, 20.96600, 9.30032E-003, 369.31985, 131.22550, 1.49182, 0.00000
 Zone Sizing Information, ZONE RETAIL POINT_OF_SALE B  - STORY GROUND, Heating, 2520.59696, 3150.74620, 0.10806, 1.49182, CLIMATE ZONE 3 ANN HTG 99.6% CONDNS DB, 1/21 02:00:00, 2.90000, 4.65595E-003, 369.31985, 131.22550, 1.49182, 0.00000
 Zone Sizing Information, ZONE RETAIL POINT_OF_SALE C  - STORY GROUND, Cooling, 2800.68424, 3220.78688, 0.19113, 0.21980, CLIMATE ZONE 3 ANN CLG .4% CONDNS DB=>MWB, 8/21 07:00:00, 20.96600, 9.30032E-003, 27.29819, 9.69950, 0.11027, 0.00000
 Zone Sizing Information, ZONE RETAIL POINT_OF_SALE C  - STORY GROUND, Heating, 1391.86516, 1739.83145, 5.96602E-002, 0.11027, CLIMATE ZONE 3 ANN HTG 99.6% CONDNS DB, 1/21 18:50:00, 2.90000, 4.65595E-003, 27.29819, 9.69950, 0.11027, 0.00000
 Zone Sizing Information, ZONE RETAIL RETAIL A  - STORY GROUND, Cooling, 32343.00181, 37194.45209, 2.18071, 2.50781, CLIMATE ZONE 3 ANN CLG .4% CONDNS DB=>MWB, 8/21 07:00:00, 20.96600, 9.30032E-003, 296.32925, 105.29073, 0.30107, 0.00000
 Zone Sizing Information, ZONE RETAIL RETAIL A  - STORY GROUND, Heating, 14422.79745, 18028.49681, 0.61821, 0.77276, CLIMATE ZONE 3 ANN HTG 99.6% CONDNS DB, 1/21 15:10:00, 2.90000, 4.65595E-003, 296.32925, 105.29073, 0.30107, 0.00000
 Zone Sizing Information, ZONE RETAIL RETAIL A END_A - STORY GROUND, Cooling, 2735.46028, 3145.77932, 0.19883, 0.22865, CLIMATE ZONE 3 ANN CLG .4% CONDNS DB=>MWB, 8/21 16:10:00, 27.15733, 9.30031E-003, 20.90318, 7.42725, 2.12376E-002, 0.00000
 Zone Sizing Information, ZONE RETAIL RETAIL A END_A - STORY GROUND, Heating, 2005.70170, 2507.12712, 8.59587E-002, 0.10745, CLIMATE ZONE 3 ANN HTG 99.6% CONDNS DB, 1/21 10:30:00, 2.90000, 4.65595E-003, 20.90318, 7.42725, 2.12376E-002, 0.00000
 Zone Sizing Information, ZONE RETAIL RETAIL B  - STORY GROUND, Cooling, 337872.59350, 388553.48253, 22.30745, 25.65357, CLIMATE ZONE 3 ANN CLG .4% CONDNS DB=>MWB, 8/21 07:00:00, 20.96600, 9.30032E-003, 4009.06650, 1424.48821, 4.07321, 0.00000
 Zone Sizing Information, ZONE RETAIL RETAIL B  - STORY GROUND, Heating, 21959.75639, 27449.69549, 0.94139, 4.07321, CLIMATE ZONE 3 ANN HTG 99.6% CONDNS DB, 1/21 10:00:00, 2.90000, 4.65595E-003, 4009.06650, 1424.48821, 4.07321, 0.00000
 Zone Sizing Information, ZONE RETAIL RETAIL B END_A - STORY GROUND, Cooling, 31236.11404, 35921.53115, 2.27055, 2.61113, CLIMATE ZONE 3 ANN CLG .4% CONDNS DB=>MWB, 8/21 17:00:00, 26.66400, 9.30032E-003, 282.80115, 100.48397, 0.28733, 0.00000
 Zone Sizing Information, ZONE RETAIL RETAIL B END_A - STORY GROUND, Heating, 13798.41453, 17248.01817, 0.59144, 0.73931, CLIMATE ZONE 3 ANN HTG 99.6% CONDNS DB, 1/21 12:40:00, 2.90000, 4.65595E-003, 282.80115, 100.48397, 0.28733, 0.00000
 Zone Sizing Information, ZONE RETAIL RETAIL C  - STORY GROUND, Cooling, 32703.34885, 37608.85118, 2.20674, 2.53776, CLIMATE ZONE 3 ANN CLG .4% CONDNS DB=>MWB, 8/21 07:00:00, 20.96600, 9.30032E-003, 296.32925, 105.29073, 0.30107, 0.00000
 Zone Sizing Information, ZONE RETAIL RETAIL C  - STORY GROUND, Heating, 14412.72009, 18015.90011, 0.61778, 0.77222, CLIMATE ZONE 3 ANN HTG 99.6% CONDNS DB, 1/21 14:40:00, 2.90000, 4.65595E-003, 296.32925, 105.29073, 0.30107, 0.00000
 Zone Sizing Information, ZONE RETAIL RETAIL C END_A - STORY GROUND, Cooling, 2525.26819, 2904.05842, 0.18355, 0.21108, CLIMATE ZONE 3 ANN CLG .4% CONDNS DB=>MWB, 8/21 16:50:00, 26.76267, 9.30032E-003, 20.90318, 7.42725, 2.12376E-002, 0.00000
 Zone Sizing Information, ZONE RETAIL RETAIL C END_A - STORY GROUND, Heating, 2004.94073, 2506.17591, 8.59261E-002, 0.10741, CLIMATE ZONE 3 ANN HTG 99.6% CONDNS DB, 1/21 09:10:00, 2.90000, 4.65595E-003, 20.90318, 7.42725, 2.12376E-002, 0.00000
! <System Sizing Information>, System Name, Field Description, Value
 System Sizing Information, ZONE RETAIL BACK_SPACE A  - STORY GROUND PSZ-AC, Calculated Cooling Design Air Flow Rate [m3/s], 0.18753
 System Sizing Information, ZONE RETAIL BACK_SPACE A  - STORY GROUND PSZ-AC, User Cooling Design Air Flow Rate [m3/s], 0.18753
 System Sizing Information, ZONE RETAIL BACK_SPACE A  - STORY GROUND PSZ-AC, Calculated Heating Design Air Flow Rate [m3/s], 0.19766
 System Sizing Information, ZONE RETAIL BACK_SPACE A  - STORY GROUND PSZ-AC, User Heating Design Air Flow Rate [m3/s], 0.19766
 System Sizing Information, ZONE RETAIL BACK_SPACE A END_B - STORY GROUND PSZ-AC, Calculated Cooling Design Air Flow Rate [m3/s], 0.11824
 System Sizing Information, ZONE RETAIL BACK_SPACE A END_B - STORY GROUND PSZ-AC, User Cooling Design Air Flow Rate [m3/s], 0.11824
 System Sizing Information, ZONE RETAIL BACK_SPACE A END_B - STORY GROUND PSZ-AC, Calculated Heating Design Air Flow Rate [m3/s], 0.13898
 System Sizing Information, ZONE RETAIL BACK_SPACE A END_B - STORY GROUND PSZ-AC, User Heating Design Air Flow Rate [m3/s], 0.13898
 System Sizing Information, ZONE RETAIL BACK_SPACE B  - STORY GROUND PSZ-AC, Calculated Cooling Design Air Flow Rate [m3/s], 1.13174
 System Sizing Information, ZONE RETAIL BACK_SPACE B  - STORY GROUND PSZ-AC, User Cooling Design Air Flow Rate [m3/s], 1.13174
 System Sizing Information, ZONE RETAIL BACK_SPACE B  - STORY GROUND PSZ-AC, Calculated Heating Design Air Flow Rate [m3/s], 1.06989
 System Sizing Information, ZONE RETAIL BACK_SPACE B  - STORY GROUND PSZ-AC, User Heating Design Air Flow Rate [m3/s], 1.06989
 System Sizing Information, ZONE RETAIL BACK_SPACE B END_B - STORY GROUND PSZ-AC, Calculated Cooling Design Air Flow Rate [m3/s], 1.15842
 System Sizing Information, ZONE RETAIL BACK_SPACE B END_B - STORY GROUND PSZ-AC, User Cooling Design Air Flow Rate [m3/s], 1.15842
 System Sizing Information, ZONE RETAIL BACK_SPACE B END_B - STORY GROUND PSZ-AC, Calculated Heating Design Air Flow Rate [m3/s], 1.16189
 System Sizing Information, ZONE RETAIL BACK_SPACE B END_B - STORY GROUND PSZ-AC, User Heating Design Air Flow Rate [m3/s], 1.16189
 System Sizing Information, ZONE RETAIL BACK_SPACE C  - STORY GROUND PSZ-AC, Calculated Cooling Design Air Flow Rate [m3/s], 0.11004
 System Sizing Information, ZONE RETAIL BACK_SPACE C  - STORY GROUND PSZ-AC, User Cooling Design Air Flow Rate [m3/s], 0.11004
 System Sizing Information, ZONE RETAIL BACK_SPACE C  - STORY GROUND PSZ-AC, Calculated Heating Design Air Flow Rate [m3/s], 0.19757
 System Sizing Information, ZONE RETAIL BACK_SPACE C  - STORY GROUND PSZ-AC, User Heating Design Air Flow Rate [m3/s], 0.19757
 System Sizing Information, ZONE RETAIL BACK_SPACE C END_B - STORY GROUND PSZ-AC, Calculated Cooling Design Air Flow Rate [m3/s], 9.77868E-002
 System Sizing Information, ZONE RETAIL BACK_SPACE C END_B - STORY GROUND PSZ-AC, User Cooling Design Air Flow Rate [m3/s], 9.77868E-002
 System Sizing Information, ZONE RETAIL BACK_SPACE C END_B - STORY GROUND PSZ-AC, Calculated Heating Design Air Flow Rate [m3/s], 0.13895
 System Sizing Information, ZONE RETAIL BACK_SPACE C END_B - STORY GROUND PSZ-AC, User Heating Design Air Flow Rate [m3/s], 0.13895
 System Sizing Information, ZONE RETAIL ENTRY A  - STORY GROUND PSZ-AC, Calculated Cooling Design Air Flow Rate [m3/s], 6.89923E-002
 System Sizing Information, ZONE RETAIL ENTRY A  - STORY GROUND PSZ-AC, User Cooling Design Air Flow Rate [m3/s], 6.89923E-002
 System Sizing Information, ZONE RETAIL ENTRY A  - STORY GROUND PSZ-AC, Calculated Heating Design Air Flow Rate [m3/s], 8.72740E-003
 System Sizing Information, ZONE RETAIL ENTRY A  - STORY GROUND PSZ-AC, User Heating Design Air Flow Rate [m3/s], 8.72740E-003
 System Sizing Information, ZONE RETAIL ENTRY B  - STORY GROUND PSZ-AC, Calculated Cooling Design Air Flow Rate [m3/s], 1.06379
 System Sizing Information, ZONE RETAIL ENTRY B  - STORY GROUND PSZ-AC, User Cooling Design Air Flow Rate [m3/s], 1.06379
 System Sizing Information, ZONE RETAIL ENTRY B  - STORY GROUND PSZ-AC, Calculated Heating Design Air Flow Rate [m3/s], 0.11807
 System Sizing Information, ZONE RETAIL ENTRY B  - STORY GROUND PSZ-AC, User Heating Design Air Flow Rate [m3/s], 0.11807
 System Sizing Information, ZONE RETAIL ENTRY C  - STORY GROUND PSZ-AC, Calculated Cooling Design Air Flow Rate [m3/s], 6.95388E-002
 System Sizing Information, ZONE RETAIL ENTRY C  - STORY GROUND PSZ-AC, User Cooling Design Air Flow Rate [m3/s], 6.95388E-002
 System Sizing Information, ZONE RETAIL ENTRY C  - STORY GROUND PSZ-AC, Calculated Heating Design Air Flow Rate [m3/s], 8.72740E-003
 System Sizing Information, ZONE RETAIL ENTRY C  - STORY GROUND PSZ-AC, User Heating Design Air Flow Rate [m3/s], 8.72740E-003
 System Sizing Information, ZONE RETAIL POINT_OF_SALE A  - STORY GROUND PSZ-AC, Calculated Cooling Design Air Flow Rate [m3/s], 0.21701
 System Sizing Information, ZONE RETAIL POINT_OF_SALE A  - STORY GROUND PSZ-AC, User Cooling Design Air Flow Rate [m3/s], 0.21701
 System Sizing Information, ZONE RETAIL POINT_OF_SALE A  - STORY GROUND PSZ-AC, Calculated Heating Design Air Flow Rate [m3/s], 0.11027
 System Sizing Information, ZONE RETAIL POINT_OF_SALE A  - STORY GROUND PSZ-AC, User Heating Design Air Flow Rate [m3/s], 0.11027
 System Sizing Information, ZONE RETAIL POINT_OF_SALE B  - STORY GROUND PSZ-AC, Calculated Cooling Design Air Flow Rate [m3/s], 2.58006
 System Sizing Information, ZONE RETAIL POINT_OF_SALE B  - STORY GROUND PSZ-AC, User Cooling Design Air Flow Rate [m3/s], 2.58006
 System Sizing Information, ZONE RETAIL POINT_OF_SALE B  - STORY GROUND PSZ-AC, Calculated Heating Design Air Flow Rate [m3/s], 1.49182
 System Sizing Information, ZONE RETAIL POINT_OF_SALE B  - STORY GROUND PSZ-AC, User Heating Design Air Flow Rate [m3/s], 1.49182
 System Sizing Information, ZONE RETAIL POINT_OF_SALE C  - STORY GROUND PSZ-AC, Calculated Cooling Design Air Flow Rate [m3/s], 0.21980
 System Sizing Information, ZONE RETAIL POINT_OF_SALE C  - STORY GROUND PSZ-AC, User Cooling Design Air Flow Rate [m3/s], 0.21980
 System Sizing Information, ZONE RETAIL POINT_OF_SALE C  - STORY GROUND PSZ-AC, Calculated Heating Design Air Flow Rate [m3/s], 0.11027
 System Sizing Information, ZONE RETAIL POINT_OF_SALE C  - STORY GROUND PSZ-AC, User Heating Design Air Flow Rate [m3/s], 0.11027
 System Sizing Information, ZONE RETAIL RETAIL A  - STORY GROUND PSZ-AC, Calculated Cooling Design Air Flow Rate [m3/s], 2.50781
 System Sizing Information, ZONE RETAIL RETAIL A  - STORY GROUND PSZ-AC, User Cooling Design Air Flow Rate [m3/s], 2.50781
 System Sizing Information, ZONE RETAIL RETAIL A  - STORY GROUND PSZ-AC, Calculated Heating Design Air Flow Rate [m3/s], 0.77276
 System Sizing Information, ZONE RETAIL RETAIL A  - STORY GROUND PSZ-AC, User Heating Design Air Flow Rate [m3/s], 0.77276
 System Sizing Information, ZONE RETAIL RETAIL A END_A - STORY GROUND PSZ-AC, Calculated Cooling Design Air Flow Rate [m3/s], 0.22865
 System Sizing Information, ZONE RETAIL RETAIL A END_A - STORY GROUND PSZ-AC, User Cooling Design Air Flow Rate [m3/s], 0.22865
 System Sizing Information, ZONE RETAIL RETAIL A END_A - STORY GROUND PSZ-AC, Calculated Heating Design Air Flow Rate [m3/s], 0.10745
 System Sizing Information, ZONE RETAIL RETAIL A END_A - STORY GROUND PSZ-AC, User Heating Design Air Flow Rate [m3/s], 0.10745
 System Sizing Information, ZONE RETAIL RETAIL B  - STORY GROUND PSZ-AC, Calculated Cooling Design Air Flow Rate [m3/s], 25.65357
 System Sizing Information, ZONE RETAIL RETAIL B  - STORY GROUND PSZ-AC, User Cooling Design Air Flow Rate [m3/s], 25.65357
 System Sizing Information, ZONE RETAIL RETAIL B  - STORY GROUND PSZ-AC, Calculated Heating Design Air Flow Rate [m3/s], 4.07321
 System Sizing Information, ZONE RETAIL RETAIL B  - STORY GROUND PSZ-AC, User Heating Design Air Flow Rate [m3/s], 4.07321
 System Sizing Information, ZONE RETAIL RETAIL B END_A - STORY GROUND PSZ-AC, Calculated Cooling Design Air Flow Rate [m3/s], 2.61113
 System Sizing Information, ZONE RETAIL RETAIL B END_A - STORY GROUND PSZ-AC, User Cooling Design Air Flow Rate [m3/s], 2.61113
 System Sizing Information, ZONE RETAIL RETAIL B END_A - STORY GROUND PSZ-AC, Calculated Heating Design Air Flow Rate [m3/s], 0.73931
 System Sizing Information, ZONE RETAIL RETAIL B END_A - STORY GROUND PSZ-AC, User Heating Design Air Flow Rate [m3/s], 0.73931
 System Sizing Information, ZONE RETAIL RETAIL C  - STORY GROUND PSZ-AC, Calculated Cooling Design Air Flow Rate [m3/s], 2.53776
 System Sizing Information, ZONE RETAIL RETAIL C  - STORY GROUND PSZ-AC, User Cooling Design Air Flow Rate [m3/s], 2.53776
 System Sizing Information, ZONE RETAIL RETAIL C  - STORY GROUND PSZ-AC, Calculated Heating Design Air Flow Rate [m3/s], 0.77222
 System Sizing Information, ZONE RETAIL RETAIL C  - STORY GROUND PSZ-AC, User Heating Design Air Flow Rate [m3/s], 0.77222
 System Sizing Information, ZONE RETAIL RETAIL C END_A - STORY GROUND PSZ-AC, Calculated Cooling Design Air Flow Rate [m3/s], 0.21108
 System Sizing Information, ZONE RETAIL RETAIL C END_A - STORY GROUND PSZ-AC, User Cooling Design Air Flow Rate [m3/s], 0.21108
 System Sizing Information, ZONE RETAIL RETAIL C END_A - STORY GROUND PSZ-AC, Calculated Heating Design Air Flow Rate [m3/s], 0.10741
 System Sizing Information, ZONE RETAIL RETAIL C END_A - STORY GROUND PSZ-AC, User Heating Design Air Flow Rate [m3/s], 0.10741
! <Component Sizing Information>, Component Type, Component Name, Input Field Description, Value
 Component Sizing Information, AirTerminal:SingleDuct:Uncontrolled, ZONE RETAIL BACK_SPACE A  - STORY GROUND PSZ-AC DIFFUSER, Design Size Maximum Air Flow Rate [m3/s], 0.19766
 Component Sizing Information, AirTerminal:SingleDuct:Uncontrolled, ZONE RETAIL BACK_SPACE A END_B - STORY GROUND PSZ-AC DIFFUSER, Design Size Maximum Air Flow Rate [m3/s], 0.13898
 Component Sizing Information, AirTerminal:SingleDuct:Uncontrolled, ZONE RETAIL BACK_SPACE B  - STORY GROUND PSZ-AC DIFFUSER, Design Size Maximum Air Flow Rate [m3/s], 1.13174
 Component Sizing Information, AirTerminal:SingleDuct:Uncontrolled, ZONE RETAIL BACK_SPACE B END_B - STORY GROUND PSZ-AC DIFFUSER, Design Size Maximum Air Flow Rate [m3/s], 1.16189
 Component Sizing Information, AirTerminal:SingleDuct:Uncontrolled, ZONE RETAIL BACK_SPACE C  - STORY GROUND PSZ-AC DIFFUSER, Design Size Maximum Air Flow Rate [m3/s], 0.19757
 Component Sizing Information, AirTerminal:SingleDuct:Uncontrolled, ZONE RETAIL BACK_SPACE C END_B - STORY GROUND PSZ-AC DIFFUSER, Design Size Maximum Air Flow Rate [m3/s], 0.13895
 Component Sizing Information, AirTerminal:SingleDuct:Uncontrolled, ZONE RETAIL ENTRY A  - STORY GROUND PSZ-AC DIFFUSER, Design Size Maximum Air Flow Rate [m3/s], 6.89923E-002
 Component Sizing Information, AirTerminal:SingleDuct:Uncontrolled, ZONE RETAIL ENTRY B  - STORY GROUND PSZ-AC DIFFUSER, Design Size Maximum Air Flow Rate [m3/s], 1.06379
 Component Sizing Information, AirTerminal:SingleDuct:Uncontrolled, ZONE RETAIL ENTRY C  - STORY GROUND PSZ-AC DIFFUSER, Design Size Maximum Air Flow Rate [m3/s], 6.95388E-002
 Component Sizing Information, AirTerminal:SingleDuct:Uncontrolled, ZONE RETAIL POINT_OF_SALE A  - STORY GROUND PSZ-AC DIFFUSER, Design Size Maximum Air Flow Rate [m3/s], 0.21701
 Component Sizing Information, AirTerminal:SingleDuct:Uncontrolled, ZONE RETAIL POINT_OF_SALE B  - STORY GROUND PSZ-AC DIFFUSER, Design Size Maximum Air Flow Rate [m3/s], 2.58006
 Component Sizing Information, AirTerminal:SingleDuct:Uncontrolled, ZONE RETAIL POINT_OF_SALE C  - STORY GROUND PSZ-AC DIFFUSER, Design Size Maximum Air Flow Rate [m3/s], 0.21980
 Component Sizing Information, AirTerminal:SingleDuct:Uncontrolled, ZONE RETAIL RETAIL A  - STORY GROUND PSZ-AC DIFFUSER, Design Size Maximum Air Flow Rate [m3/s], 2.50781
 Component Sizing Information, AirTerminal:SingleDuct:Uncontrolled, ZONE RETAIL RETAIL A END_A - STORY GROUND PSZ-AC DIFFUSER, Design Size Maximum Air Flow Rate [m3/s], 0.22865
 Component Sizing Information, AirTerminal:SingleDuct:Uncontrolled, ZONE RETAIL RETAIL B  - STORY GROUND PSZ-AC DIFFUSER, Design Size Maximum Air Flow Rate [m3/s], 25.65357
 Component Sizing Information, AirTerminal:SingleDuct:Uncontrolled, ZONE RETAIL RETAIL B END_A - STORY GROUND PSZ-AC DIFFUSER, Design Size Maximum Air Flow Rate [m3/s], 2.61113
 Component Sizing Information, AirTerminal:SingleDuct:Uncontrolled, ZONE RETAIL RETAIL C  - STORY GROUND PSZ-AC DIFFUSER, Design Size Maximum Air Flow Rate [m3/s], 2.53776
 Component Sizing Information, AirTerminal:SingleDuct:Uncontrolled, ZONE RETAIL RETAIL C END_A - STORY GROUND PSZ-AC DIFFUSER, Design Size Maximum Air Flow Rate [m3/s], 0.21108
 Component Sizing Information, AirLoopHVAC, ZONE RETAIL BACK_SPACE A  - STORY GROUND PSZ-AC, Design Supply Air Flow Rate [m3/s], 0.19766
 Component Sizing Information, AirLoopHVAC, ZONE RETAIL BACK_SPACE A END_B - STORY GROUND PSZ-AC, Design Supply Air Flow Rate [m3/s], 0.13898
 Component Sizing Information, AirLoopHVAC, ZONE RETAIL BACK_SPACE B  - STORY GROUND PSZ-AC, Design Supply Air Flow Rate [m3/s], 1.13174
 Component Sizing Information, AirLoopHVAC, ZONE RETAIL BACK_SPACE B END_B - STORY GROUND PSZ-AC, Design Supply Air Flow Rate [m3/s], 1.16189
 Component Sizing Information, AirLoopHVAC, ZONE RETAIL BACK_SPACE C  - STORY GROUND PSZ-AC, Design Supply Air Flow Rate [m3/s], 0.19757
 Component Sizing Information, AirLoopHVAC, ZONE RETAIL BACK_SPACE C END_B - STORY GROUND PSZ-AC, Design Supply Air Flow Rate [m3/s], 0.13895
 Component Sizing Information, AirLoopHVAC, ZONE RETAIL ENTRY A  - STORY GROUND PSZ-AC, Design Supply Air Flow Rate [m3/s], 6.89923E-002
 Component Sizing Information, AirLoopHVAC, ZONE RETAIL ENTRY B  - STORY GROUND PSZ-AC, Design Supply Air Flow Rate [m3/s], 1.06379
 Component Sizing Information, AirLoopHVAC, ZONE RETAIL ENTRY C  - STORY GROUND PSZ-AC, Design Supply Air Flow Rate [m3/s], 6.95388E-002
 Component Sizing Information, AirLoopHVAC, ZONE RETAIL POINT_OF_SALE A  - STORY GROUND PSZ-AC, Design Supply Air Flow Rate [m3/s], 0.21701
 Component Sizing Information, AirLoopHVAC, ZONE RETAIL POINT_OF_SALE B  - STORY GROUND PSZ-AC, Design Supply Air Flow Rate [m3/s], 2.58006
 Component Sizing Information, AirLoopHVAC, ZONE RETAIL POINT_OF_SALE C  - STORY GROUND PSZ-AC, Design Supply Air Flow Rate [m3/s], 0.21980
 Component Sizing Information, AirLoopHVAC, ZONE RETAIL RETAIL A  - STORY GROUND PSZ-AC, Design Supply Air Flow Rate [m3/s], 2.50781
 Component Sizing Information, AirLoopHVAC, ZONE RETAIL RETAIL A END_A - STORY GROUND PSZ-AC, Design Supply Air Flow Rate [m3/s], 0.22865
 Component Sizing Information, AirLoopHVAC, ZONE RETAIL RETAIL B  - STORY GROUND PSZ-AC, Design Supply Air Flow Rate [m3/s], 25.65357
 Component Sizing Information, AirLoopHVAC, ZONE RETAIL RETAIL B END_A - STORY GROUND PSZ-AC, Design Supply Air Flow Rate [m3/s], 2.61113
 Component Sizing Information, AirLoopHVAC, ZONE RETAIL RETAIL C  - STORY GROUND PSZ-AC, Design Supply Air Flow Rate [m3/s], 2.53776
 Component Sizing Information, AirLoopHVAC, ZONE RETAIL RETAIL C END_A - STORY GROUND PSZ-AC, Design Supply Air Flow Rate [m3/s], 0.21108
!<Controller:MechanicalVentilation>,Name,Availability Schedule Name,Demand Controlled Ventilation {Yes/No},System Outdoor Air Method,Zone Maximum Outdoor Air Fraction,Number of Zones,Zone Name,DSOA Name,DSZAD Name
 Controller:MechanicalVentilation,CONTROLLER MECHANICAL VENTILATION 17,ALWAYS ON DISCRETE,No,ZoneSum,1.00,1,ZONE RETAIL BACK_SPACE A  - STORY GROUND,RETAIL BACK_SPACE VENTILATION,ZONE RETAIL BACK_SPACE A  - STORY GROUND DESIGN SPEC ZONE AIR DIST
 Controller:MechanicalVentilation,CONTROLLER MECHANICAL VENTILATION 8,ALWAYS ON DISCRETE,No,ZoneSum,1.00,1,ZONE RETAIL BACK_SPACE A END_B - STORY GROUND,RETAIL BACK_SPACE VENTILATION,ZONE RETAIL BACK_SPACE A END_B - STORY GROUND DESIGN SPEC ZONE AIR DIST
 Controller:MechanicalVentilation,CONTROLLER MECHANICAL VENTILATION 10,ALWAYS ON DISCRETE,No,ZoneSum,1.00,1,ZONE RETAIL BACK_SPACE B  - STORY GROUND,RETAIL BACK_SPACE VENTILATION,ZONE RETAIL BACK_SPACE B  - STORY GROUND DESIGN SPEC ZONE AIR DIST
 Controller:MechanicalVentilation,CONTROLLER MECHANICAL VENTILATION 3,ALWAYS ON DISCRETE,No,ZoneSum,1.00,1,ZONE RETAIL BACK_SPACE B END_B - STORY GROUND,RETAIL BACK_SPACE VENTILATION,ZONE RETAIL BACK_SPACE B END_B - STORY GROUND DESIGN SPEC ZONE AIR DIST
 Controller:MechanicalVentilation,CONTROLLER MECHANICAL VENTILATION 5,ALWAYS ON DISCRETE,No,ZoneSum,1.00,1,ZONE RETAIL BACK_SPACE C  - STORY GROUND,RETAIL BACK_SPACE VENTILATION,ZONE RETAIL BACK_SPACE C  - STORY GROUND DESIGN SPEC ZONE AIR DIST
 Controller:MechanicalVentilation,CONTROLLER MECHANICAL VENTILATION 4,ALWAYS ON DISCRETE,No,ZoneSum,1.00,1,ZONE RETAIL BACK_SPACE C END_B - STORY GROUND,RETAIL BACK_SPACE VENTILATION,ZONE RETAIL BACK_SPACE C END_B - STORY GROUND DESIGN SPEC ZONE AIR DIST
 Controller:MechanicalVentilation,CONTROLLER MECHANICAL VENTILATION 9,ALWAYS ON DISCRETE,No,ZoneSum,1.00,1,ZONE RETAIL ENTRY A  - STORY GROUND,RETAIL ENTRY VENTILATION,ZONE RETAIL ENTRY A  - STORY GROUND DESIGN SPEC ZONE AIR DIST
 Controller:MechanicalVentilation,CONTROLLER MECHANICAL VENTILATION 11,ALWAYS ON DISCRETE,No,ZoneSum,1.00,1,ZONE RETAIL ENTRY B  - STORY GROUND,RETAIL ENTRY VENTILATION,ZONE RETAIL ENTRY B  - STORY GROUND DESIGN SPEC ZONE AIR DIST
 Controller:MechanicalVentilation,CONTROLLER MECHANICAL VENTILATION 7,ALWAYS ON DISCRETE,No,ZoneSum,1.00,1,ZONE RETAIL ENTRY C  - STORY GROUND,RETAIL ENTRY VENTILATION,ZONE RETAIL ENTRY C  - STORY GROUND DESIGN SPEC ZONE AIR DIST
 Controller:MechanicalVentilation,CONTROLLER MECHANICAL VENTILATION 12,ALWAYS ON DISCRETE,No,ZoneSum,1.00,1,ZONE RETAIL POINT_OF_SALE A  - STORY GROUND,RETAIL POINT_OF_SALE VENTILATION,ZONE RETAIL POINT_OF_SALE A  - STORY GROUND DESIGN SPEC ZONE AIR DIST
 Controller:MechanicalVentilation,CONTROLLER MECHANICAL VENTILATION 15,ALWAYS ON DISCRETE,No,ZoneSum,1.00,1,ZONE RETAIL POINT_OF_SALE B  - STORY GROUND,RETAIL POINT_OF_SALE VENTILATION,ZONE RETAIL POINT_OF_SALE B  - STORY GROUND DESIGN SPEC ZONE AIR DIST
 Controller:MechanicalVentilation,CONTROLLER MECHANICAL VENTILATION 6,ALWAYS ON DISCRETE,No,ZoneSum,1.00,1,ZONE RETAIL POINT_OF_SALE C  - STORY GROUND,RETAIL POINT_OF_SALE VENTILATION,ZONE RETAIL POINT_OF_SALE C  - STORY GROUND DESIGN SPEC ZONE AIR DIST
 Controller:MechanicalVentilation,CONTROLLER MECHANICAL VENTILATION 18,ALWAYS ON DISCRETE,No,ZoneSum,1.00,1,ZONE RETAIL RETAIL A  - STORY GROUND,RETAIL RETAIL VENTILATION,ZONE RETAIL RETAIL A  - STORY GROUND DESIGN SPEC ZONE AIR DIST
 Controller:MechanicalVentilation,CONTROLLER MECHANICAL VENTILATION 16,ALWAYS ON DISCRETE,No,ZoneSum,1.00,1,ZONE RETAIL RETAIL A END_A - STORY GROUND,RETAIL RETAIL VENTILATION,ZONE RETAIL RETAIL A END_A - STORY GROUND DESIGN SPEC ZONE AIR DIST
 Controller:MechanicalVentilation,CONTROLLER MECHANICAL VENTILATION 13,ALWAYS ON DISCRETE,No,ZoneSum,1.00,1,ZONE RETAIL RETAIL B  - STORY GROUND,RETAIL RETAIL VENTILATION,ZONE RETAIL RETAIL B  - STORY GROUND DESIGN SPEC ZONE AIR DIST
 Controller:MechanicalVentilation,CONTROLLER MECHANICAL VENTILATION 14,ALWAYS ON DISCRETE,No,ZoneSum,1.00,1,ZONE RETAIL RETAIL B END_A - STORY GROUND,RETAIL RETAIL VENTILATION,ZONE RETAIL RETAIL B END_A - STORY GROUND DESIGN SPEC ZONE AIR DIST
 Controller:MechanicalVentilation,CONTROLLER MECHANICAL VENTILATION 1,ALWAYS ON DISCRETE,No,ZoneSum,1.00,1,ZONE RETAIL RETAIL C  - STORY GROUND,RETAIL RETAIL VENTILATION,ZONE RETAIL RETAIL C  - STORY GROUND DESIGN SPEC ZONE AIR DIST
 Controller:MechanicalVentilation,CONTROLLER MECHANICAL VENTILATION 2,ALWAYS ON DISCRETE,No,ZoneSum,1.00,1,ZONE RETAIL RETAIL C END_A - STORY GROUND,RETAIL RETAIL VENTILATION,ZONE RETAIL RETAIL C END_A - STORY GROUND DESIGN SPEC ZONE AIR DIST
 Component Sizing Information, Controller:OutdoorAir, ZONE RETAIL BACK_SPACE A  - STORY GROUND PSZ-AC OA SYS CONTROLLER, Maximum Outdoor Air Flow Rate [m3/s], 0.19766
 Component Sizing Information, Coil:Cooling:DX:SingleSpeed, ZONE RETAIL BACK_SPACE A  - STORY GROUND PSZ-AC 1SPD DX AC CLG COIL, Design Size Rated Air Flow Rate [m3/s], 0.19766
 Component Sizing Information, Coil:Cooling:DX:SingleSpeed, ZONE RETAIL BACK_SPACE A  - STORY GROUND PSZ-AC 1SPD DX AC CLG COIL, Design Size Gross Rated Total Cooling Capacity [W], 3399.44881
 Component Sizing Information, Coil:Cooling:DX:SingleSpeed, ZONE RETAIL BACK_SPACE A  - STORY GROUND PSZ-AC 1SPD DX AC CLG COIL, Design Size Gross Rated Sensible Heat Ratio, 0.78487
! <DX Cooling Coil Standard Rating Information>, Component Type, Component Name, Standard Rating (Net) Cooling Capacity {W}, Standard Rated Net COP {W/W}, EER {Btu/W-h}, SEER {Btu/W-h}, IEER {Btu/W-h}
 DX Cooling Coil Standard Rating Information, Coil:Cooling:DX:SingleSpeed, ZONE RETAIL BACK_SPACE A  - STORY GROUND PSZ-AC 1SPD DX AC CLG COIL, 3246.3, 2.52, 8.61, 9.90, 9.47
 Component Sizing Information, Coil:Heating:Fuel, ZONE RETAIL BACK_SPACE A  - STORY GROUND PSZ-AC GAS HTG COIL, Design Size Nominal Capacity [W], 5583.89278
 Component Sizing Information, Coil:Heating:Electric, ZONE RETAIL BACK_SPACE A  - STORY GROUND PSZ-AC ELECTRIC BACKUP HTG COIL, Design Size Nominal Capacity [W], 5583.89278
 Component Sizing Information, Fan:ConstantVolume, ZONE RETAIL BACK_SPACE A  - STORY GROUND PSZ-AC FAN, Design Size Maximum Flow Rate [m3/s], 0.19766
 Component Sizing Information, Controller:OutdoorAir, ZONE RETAIL BACK_SPACE A END_B - STORY GROUND PSZ-AC OA SYS CONTROLLER, Maximum Outdoor Air Flow Rate [m3/s], 0.13898
 Component Sizing Information, Coil:Cooling:DX:SingleSpeed, ZONE RETAIL BACK_SPACE A END_B - STORY GROUND PSZ-AC 1SPD DX AC CLG COIL, Design Size Rated Air Flow Rate [m3/s], 0.13898
 Component Sizing Information, Coil:Cooling:DX:SingleSpeed, ZONE RETAIL BACK_SPACE A END_B - STORY GROUND PSZ-AC 1SPD DX AC CLG COIL, Design Size Gross Rated Total Cooling Capacity [W], 2300.68598
 Component Sizing Information, Coil:Cooling:DX:SingleSpeed, ZONE RETAIL BACK_SPACE A END_B - STORY GROUND PSZ-AC 1SPD DX AC CLG COIL, Design Size Gross Rated Sensible Heat Ratio, 0.79866
 DX Cooling Coil Standard Rating Information, Coil:Cooling:DX:SingleSpeed, ZONE RETAIL BACK_SPACE A END_B - STORY GROUND PSZ-AC 1SPD DX AC CLG COIL, 2193.0, 2.51, 8.56, 9.83, 9.37
 Component Sizing Information, Coil:Heating:Fuel, ZONE RETAIL BACK_SPACE A END_B - STORY GROUND PSZ-AC GAS HTG COIL, Design Size Nominal Capacity [W], 3649.54225
 Component Sizing Information, Coil:Heating:Electric, ZONE RETAIL BACK_SPACE A END_B - STORY GROUND PSZ-AC ELECTRIC BACKUP HTG COIL, Design Size Nominal Capacity [W], 3649.54225
 Component Sizing Information, Fan:ConstantVolume, ZONE RETAIL BACK_SPACE A END_B - STORY GROUND PSZ-AC FAN, Design Size Maximum Flow Rate [m3/s], 0.13898
 Component Sizing Information, Controller:OutdoorAir, ZONE RETAIL BACK_SPACE B  - STORY GROUND PSZ-AC OA SYS CONTROLLER, Maximum Outdoor Air Flow Rate [m3/s], 1.13174
 Component Sizing Information, Coil:Cooling:DX:SingleSpeed, ZONE RETAIL BACK_SPACE B  - STORY GROUND PSZ-AC 1SPD DX AC CLG COIL, Design Size Rated Air Flow Rate [m3/s], 1.13174
 Component Sizing Information, Coil:Cooling:DX:SingleSpeed, ZONE RETAIL BACK_SPACE B  - STORY GROUND PSZ-AC 1SPD DX AC CLG COIL, Design Size Gross Rated Total Cooling Capacity [W], 22041.80657
 Component Sizing Information, Coil:Cooling:DX:SingleSpeed, ZONE RETAIL BACK_SPACE B  - STORY GROUND PSZ-AC 1SPD DX AC CLG COIL, Design Size Gross Rated Sensible Heat Ratio, 0.74349
 DX Cooling Coil Standard Rating Information, Coil:Cooling:DX:SingleSpeed, ZONE RETAIL BACK_SPACE B  - STORY GROUND PSZ-AC 1SPD DX AC CLG COIL, 21164.4, 2.57, 8.78, 10.12, 9.78
 Component Sizing Information, Coil:Heating:Fuel, ZONE RETAIL BACK_SPACE B  - STORY GROUND PSZ-AC GAS HTG COIL, Design Size Nominal Capacity [W], 40076.55326
 Component Sizing Information, Coil:Heating:Electric, ZONE RETAIL BACK_SPACE B  - STORY GROUND PSZ-AC ELECTRIC BACKUP HTG COIL, Design Size Nominal Capacity [W], 40076.55326
 Component Sizing Information, Fan:ConstantVolume, ZONE RETAIL BACK_SPACE B  - STORY GROUND PSZ-AC FAN, Design Size Maximum Flow Rate [m3/s], 1.13174
 Component Sizing Information, Controller:OutdoorAir, ZONE RETAIL BACK_SPACE B END_B - STORY GROUND PSZ-AC OA SYS CONTROLLER, Maximum Outdoor Air Flow Rate [m3/s], 1.16189
 Component Sizing Information, Coil:Cooling:DX:SingleSpeed, ZONE RETAIL BACK_SPACE B END_B - STORY GROUND PSZ-AC 1SPD DX AC CLG COIL, Design Size Rated Air Flow Rate [m3/s], 1.16189
 Component Sizing Information, Coil:Cooling:DX:SingleSpeed, ZONE RETAIL BACK_SPACE B END_B - STORY GROUND PSZ-AC 1SPD DX AC CLG COIL, Design Size Gross Rated Total Cooling Capacity [W], 19233.45905
 Component Sizing Information, Coil:Cooling:DX:SingleSpeed, ZONE RETAIL BACK_SPACE B END_B - STORY GROUND PSZ-AC 1SPD DX AC CLG COIL, Design Size Gross Rated Sensible Heat Ratio, 0.79866
 DX Cooling Coil Standard Rating Information, Coil:Cooling:DX:SingleSpeed, ZONE RETAIL BACK_SPACE B END_B - STORY GROUND PSZ-AC 1SPD DX AC CLG COIL, 18333.0, 2.51, 8.56, 9.83, 9.37
 Component Sizing Information, Coil:Heating:Fuel, ZONE RETAIL BACK_SPACE B END_B - STORY GROUND PSZ-AC GAS HTG COIL, Design Size Nominal Capacity [W], 32850.29809
 Component Sizing Information, Coil:Heating:Electric, ZONE RETAIL BACK_SPACE B END_B - STORY GROUND PSZ-AC ELECTRIC BACKUP HTG COIL, Design Size Nominal Capacity [W], 32850.29809
 Component Sizing Information, Fan:ConstantVolume, ZONE RETAIL BACK_SPACE B END_B - STORY GROUND PSZ-AC FAN, Design Size Maximum Flow Rate [m3/s], 1.16189
 Component Sizing Information, Controller:OutdoorAir, ZONE RETAIL BACK_SPACE C  - STORY GROUND PSZ-AC OA SYS CONTROLLER, Maximum Outdoor Air Flow Rate [m3/s], 0.19757
 Component Sizing Information, Coil:Cooling:DX:SingleSpeed, ZONE RETAIL BACK_SPACE C  - STORY GROUND PSZ-AC 1SPD DX AC CLG COIL, Design Size Rated Air Flow Rate [m3/s], 0.19757
 Component Sizing Information, Coil:Cooling:DX:SingleSpeed, ZONE RETAIL BACK_SPACE C  - STORY GROUND PSZ-AC 1SPD DX AC CLG COIL, Design Size Gross Rated Total Cooling Capacity [W], 3628.10637
 Component Sizing Information, Coil:Cooling:DX:SingleSpeed, ZONE RETAIL BACK_SPACE C  - STORY GROUND PSZ-AC 1SPD DX AC CLG COIL, Design Size Gross Rated Sensible Heat Ratio, 0.76242
 DX Cooling Coil Standard Rating Information, Coil:Cooling:DX:SingleSpeed, ZONE RETAIL BACK_SPACE C  - STORY GROUND PSZ-AC 1SPD DX AC CLG COIL, 3475.0, 2.55, 8.70, 10.02, 9.64
 Component Sizing Information, Coil:Heating:Fuel, ZONE RETAIL BACK_SPACE C  - STORY GROUND PSZ-AC GAS HTG COIL, Design Size Nominal Capacity [W], 5581.89741
 Component Sizing Information, Coil:Heating:Electric, ZONE RETAIL BACK_SPACE C  - STORY GROUND PSZ-AC ELECTRIC BACKUP HTG COIL, Design Size Nominal Capacity [W], 5581.89741
 Component Sizing Information, Fan:ConstantVolume, ZONE RETAIL BACK_SPACE C  - STORY GROUND PSZ-AC FAN, Design Size Maximum Flow Rate [m3/s], 0.19757
 Component Sizing Information, Controller:OutdoorAir, ZONE RETAIL BACK_SPACE C END_B - STORY GROUND PSZ-AC OA SYS CONTROLLER, Maximum Outdoor Air Flow Rate [m3/s], 0.13895
 Component Sizing Information, Coil:Cooling:DX:SingleSpeed, ZONE RETAIL BACK_SPACE C END_B - STORY GROUND PSZ-AC 1SPD DX AC CLG COIL, Design Size Rated Air Flow Rate [m3/s], 0.13895
 Component Sizing Information, Coil:Cooling:DX:SingleSpeed, ZONE RETAIL BACK_SPACE C END_B - STORY GROUND PSZ-AC 1SPD DX AC CLG COIL, Design Size Gross Rated Total Cooling Capacity [W], 2300.04258
 Component Sizing Information, Coil:Cooling:DX:SingleSpeed, ZONE RETAIL BACK_SPACE C END_B - STORY GROUND PSZ-AC 1SPD DX AC CLG COIL, Design Size Gross Rated Sensible Heat Ratio, 0.79866
 DX Cooling Coil Standard Rating Information, Coil:Cooling:DX:SingleSpeed, ZONE RETAIL BACK_SPACE C END_B - STORY GROUND PSZ-AC 1SPD DX AC CLG COIL, 2192.4, 2.51, 8.56, 9.83, 9.37
 Component Sizing Information, Coil:Heating:Fuel, ZONE RETAIL BACK_SPACE C END_B - STORY GROUND PSZ-AC GAS HTG COIL, Design Size Nominal Capacity [W], 3648.64830
 Component Sizing Information, Coil:Heating:Electric, ZONE RETAIL BACK_SPACE C END_B - STORY GROUND PSZ-AC ELECTRIC BACKUP HTG COIL, Design Size Nominal Capacity [W], 3648.64830
 Component Sizing Information, Fan:ConstantVolume, ZONE RETAIL BACK_SPACE C END_B - STORY GROUND PSZ-AC FAN, Design Size Maximum Flow Rate [m3/s], 0.13895
 Component Sizing Information, Controller:OutdoorAir, ZONE RETAIL ENTRY A  - STORY GROUND PSZ-AC OA SYS CONTROLLER, Maximum Outdoor Air Flow Rate [m3/s], 6.89923E-002
 Component Sizing Information, Coil:Cooling:DX:SingleSpeed, ZONE RETAIL ENTRY A  - STORY GROUND PSZ-AC 1SPD DX AC CLG COIL, Design Size Rated Air Flow Rate [m3/s], 6.89923E-002
 Component Sizing Information, Coil:Cooling:DX:SingleSpeed, ZONE RETAIL ENTRY A  - STORY GROUND PSZ-AC 1SPD DX AC CLG COIL, Design Size Gross Rated Total Cooling Capacity [W], 1142.06737
 Component Sizing Information, Coil:Cooling:DX:SingleSpeed, ZONE RETAIL ENTRY A  - STORY GROUND PSZ-AC 1SPD DX AC CLG COIL, Design Size Gross Rated Sensible Heat Ratio, 0.79866
 DX Cooling Coil Standard Rating Information, Coil:Cooling:DX:SingleSpeed, ZONE RETAIL ENTRY A  - STORY GROUND PSZ-AC 1SPD DX AC CLG COIL, 1088.6, 2.51, 8.56, 9.83, 9.37
 Component Sizing Information, Coil:Heating:Fuel, ZONE RETAIL ENTRY A  - STORY GROUND PSZ-AC GAS HTG COIL, Design Size Nominal Capacity [W], 1777.18246
 Component Sizing Information, Coil:Heating:Electric, ZONE RETAIL ENTRY A  - STORY GROUND PSZ-AC ELECTRIC BACKUP HTG COIL, Design Size Nominal Capacity [W], 1777.18246
 Component Sizing Information, Fan:ConstantVolume, ZONE RETAIL ENTRY A  - STORY GROUND PSZ-AC FAN, Design Size Maximum Flow Rate [m3/s], 6.89923E-002
 Component Sizing Information, Controller:OutdoorAir, ZONE RETAIL ENTRY B  - STORY GROUND PSZ-AC OA SYS CONTROLLER, Maximum Outdoor Air Flow Rate [m3/s], 1.06379
 Component Sizing Information, Coil:Cooling:DX:SingleSpeed, ZONE RETAIL ENTRY B  - STORY GROUND PSZ-AC 1SPD DX AC CLG COIL, Design Size Rated Air Flow Rate [m3/s], 1.06379
 Component Sizing Information, Coil:Cooling:DX:SingleSpeed, ZONE RETAIL ENTRY B  - STORY GROUND PSZ-AC 1SPD DX AC CLG COIL, Design Size Gross Rated Total Cooling Capacity [W], 17609.51025
 Component Sizing Information, Coil:Cooling:DX:SingleSpeed, ZONE RETAIL ENTRY B  - STORY GROUND PSZ-AC 1SPD DX AC CLG COIL, Design Size Gross Rated Sensible Heat Ratio, 0.79866
 DX Cooling Coil Standard Rating Information, Coil:Cooling:DX:SingleSpeed, ZONE RETAIL ENTRY B  - STORY GROUND PSZ-AC 1SPD DX AC CLG COIL, 16785.1, 2.51, 8.56, 9.83, 9.37
 Component Sizing Information, Coil:Heating:Fuel, ZONE RETAIL ENTRY B  - STORY GROUND PSZ-AC GAS HTG COIL, Design Size Nominal Capacity [W], 27039.48269
 Component Sizing Information, Coil:Heating:Electric, ZONE RETAIL ENTRY B  - STORY GROUND PSZ-AC ELECTRIC BACKUP HTG COIL, Design Size Nominal Capacity [W], 27039.48269
 Component Sizing Information, Fan:ConstantVolume, ZONE RETAIL ENTRY B  - STORY GROUND PSZ-AC FAN, Design Size Maximum Flow Rate [m3/s], 1.06379
 Component Sizing Information, Controller:OutdoorAir, ZONE RETAIL ENTRY C  - STORY GROUND PSZ-AC OA SYS CONTROLLER, Maximum Outdoor Air Flow Rate [m3/s], 6.95388E-002
 Component Sizing Information, Coil:Cooling:DX:SingleSpeed, ZONE RETAIL ENTRY C  - STORY GROUND PSZ-AC 1SPD DX AC CLG COIL, Design Size Rated Air Flow Rate [m3/s], 6.95388E-002
 Component Sizing Information, Coil:Cooling:DX:SingleSpeed, ZONE RETAIL ENTRY C  - STORY GROUND PSZ-AC 1SPD DX AC CLG COIL, Design Size Gross Rated Total Cooling Capacity [W], 1151.11396
[...]
 Component Sizing Information, Coil:Cooling:DX:SingleSpeed, ZONE RETAIL RETAIL C  - STORY GROUND PSZ-AC 1SPD DX AC CLG COIL, Design Size Gross Rated Total Cooling Capacity [W], 43917.56391
 Component Sizing Information, Coil:Cooling:DX:SingleSpeed, ZONE RETAIL RETAIL C  - STORY GROUND PSZ-AC 1SPD DX AC CLG COIL, Design Size Gross Rated Sensible Heat Ratio, 0.78268
 DX Cooling Coil Standard Rating Information, Coil:Cooling:DX:SingleSpeed, ZONE RETAIL RETAIL C  - STORY GROUND PSZ-AC 1SPD DX AC CLG COIL, 41950.7, 2.53, 8.62, 9.91, 9.48
 Component Sizing Information, Coil:Heating:Fuel, ZONE RETAIL RETAIL C  - STORY GROUND PSZ-AC GAS HTG COIL, Design Size Nominal Capacity [W], 64935.76569
 Component Sizing Information, Coil:Heating:Electric, ZONE RETAIL RETAIL C  - STORY GROUND PSZ-AC ELECTRIC BACKUP HTG COIL, Design Size Nominal Capacity [W], 64935.76569
 Component Sizing Information, Fan:ConstantVolume, ZONE RETAIL RETAIL C  - STORY GROUND PSZ-AC FAN, Design Size Maximum Flow Rate [m3/s], 2.53776
 Component Sizing Information, Controller:OutdoorAir, ZONE RETAIL RETAIL C END_A - STORY GROUND PSZ-AC OA SYS CONTROLLER, Maximum Outdoor Air Flow Rate [m3/s], 0.21108
 Component Sizing Information, Coil:Cooling:DX:SingleSpeed, ZONE RETAIL RETAIL C END_A - STORY GROUND PSZ-AC 1SPD DX AC CLG COIL, Design Size Rated Air Flow Rate [m3/s], 0.21108
 Component Sizing Information, Coil:Cooling:DX:SingleSpeed, ZONE RETAIL RETAIL C END_A - STORY GROUND PSZ-AC 1SPD DX AC CLG COIL, Design Size Gross Rated Total Cooling Capacity [W], 3693.02247
 Component Sizing Information, Coil:Cooling:DX:SingleSpeed, ZONE RETAIL RETAIL C END_A - STORY GROUND PSZ-AC 1SPD DX AC CLG COIL, Design Size Gross Rated Sensible Heat Ratio, 0.77886
 DX Cooling Coil Standard Rating Information, Coil:Cooling:DX:SingleSpeed, ZONE RETAIL RETAIL C END_A - STORY GROUND PSZ-AC 1SPD DX AC CLG COIL, 3529.4, 2.53, 8.64, 9.93, 9.51
 Component Sizing Information, Coil:Heating:Fuel, ZONE RETAIL RETAIL C END_A - STORY GROUND PSZ-AC GAS HTG COIL, Design Size Nominal Capacity [W], 5318.48350
 Component Sizing Information, Coil:Heating:Electric, ZONE RETAIL RETAIL C END_A - STORY GROUND PSZ-AC ELECTRIC BACKUP HTG COIL, Design Size Nominal Capacity [W], 5318.48350
 Component Sizing Information, Fan:ConstantVolume, ZONE RETAIL RETAIL C END_A - STORY GROUND PSZ-AC FAN, Design Size Maximum Flow Rate [m3/s], 0.21108
! <Environment>,Environment Name,Environment Type, Start Date, End Date, Start DayOfWeek, Duration {#days}, Source:Start DayOfWeek,  Use Daylight Saving, Use Holidays, Apply Weekend Holiday Rule,  Use Rain Values, Use Snow Values
! <Environment:Special Days>, Special Day Name, Special Day Type, Source, Start Date, Duration {#days}
! <Environment:Daylight Saving>, Daylight Saving Indicator, Source, Start Date, End Date
! <Environment:WarmupDays>, NumberofWarmupDays
Environment,CLIMATE ZONE 3 ANN CLG .4% CONDNS DB=>MWB,SizingPeriod:DesignDay,08/21,08/21,SummerDesignDay,1,N/A,N/A,N/A,N/A,N/A,N/A
Environment:Daylight Saving,No,SizingPeriod:DesignDay
! <Environment:Design Day Data>, Max Dry-Bulb Temp {C}, Temp Range {dC}, Temp Range Ind Type, Hum Ind Value at Max Temp, Hum Ind Type,Pressure {Pa}, Wind Direction {deg CW from N}, Wind Speed {m/s}, Clearness, Rain, Snow
! <Environment:Design Day Misc>,DayOfYear,ASHRAE A Coeff,ASHRAE B Coeff,ASHRAE C Coeff,Solar Constant-Annual Variation,Eq of Time {minutes}, Solar Declination Angle {deg}, Solar Model
Environment:Design Day Data,27.70,7.40,DefaultMultipliers,101301,290,4.9,0.00,No,No
Environment:Design Day Misc,233,1106.3,0.2000,0.1216,1.0,-3.33,12.4,ASHRAETau
Environment:WarmupDays,  6
! <Tabular Report>,Style,Unit Conversion
Tabular Report,HTML,None
! <Warmup Convergence Information>,Zone Name,Environment Type/Name,Average Warmup Temperature Difference {deltaC},Std Dev Warmup Temperature Difference {deltaC},Max Temperature Pass/Fail Convergence,Min Temperature Pass/Fail Convergence,Average Warmup Load Difference {W},Std Dev Warmup Load Difference {W},Heating Load Pass/Fail Convergence,Cooling Load Pass/Fail Convergence
 Warmup Convergence Information,ZONE RETAIL BACK_SPACE A  - STORY GROUND,SizingPeriod: CLIMATE ZONE 3 ANN CLG .4% CONDNS DB=>MWB,1.2584882317E-002,4.3392222439E-002,Pass,Pass,6.7336114975E-002,0.2461864554,Pass,Pass
 Warmup Convergence Information,ZONE RETAIL BACK_SPACE A END_B - STORY GROUND,SizingPeriod: CLIMATE ZONE 3 ANN CLG .4% CONDNS DB=>MWB,2.1833384904E-002,5.6157978174E-002,Pass,Pass,3.8073466365E-002,5.8749886984E-002,Pass,Pass
 Warmup Convergence Information,ZONE RETAIL BACK_SPACE B  - STORY GROUND,SizingPeriod: CLIMATE ZONE 3 ANN CLG .4% CONDNS DB=>MWB,2.0274446581E-002,7.1151299267E-002,Pass,Pass,0.3315700667,3.5911800393,Pass,Pass
 Warmup Convergence Information,ZONE RETAIL BACK_SPACE B END_B - STORY GROUND,SizingPeriod: CLIMATE ZONE 3 ANN CLG .4% CONDNS DB=>MWB,1.6781116554E-002,4.2932459850E-002,Pass,Pass,8.8417497696E-002,0.4453930680,Pass,Pass
 Warmup Convergence Information,ZONE RETAIL BACK_SPACE C  - STORY GROUND,SizingPeriod: CLIMATE ZONE 3 ANN CLG .4% CONDNS DB=>MWB,1.2949938673E-002,4.2967073610E-002,Pass,Pass,6.0646034900E-002,0.2402004405,Pass,Pass
 Warmup Convergence Information,ZONE RETAIL BACK_SPACE C END_B - STORY GROUND,SizingPeriod: CLIMATE ZONE 3 ANN CLG .4% CONDNS DB=>MWB,2.1711137319E-002,5.5647642197E-002,Pass,Pass,3.5560023303E-002,5.6957521392E-002,Pass,Pass
 Warmup Convergence Information,ZONE RETAIL ENTRY A  - STORY GROUND,SizingPeriod: CLIMATE ZONE 3 ANN CLG .4% CONDNS DB=>MWB,7.7221320467E-002,0.4454256031,Pass,Pass,0.1731626195,0.7540849671,Pass,Pass
 Warmup Convergence Information,ZONE RETAIL ENTRY B  - STORY GROUND,SizingPeriod: CLIMATE ZONE 3 ANN CLG .4% CONDNS DB=>MWB,7.7151715864E-002,0.4674701974,Pass,Pass,0.2065019351,1.3502839146,Pass,Pass
 Warmup Convergence Information,ZONE RETAIL ENTRY C  - STORY GROUND,SizingPeriod: CLIMATE ZONE 3 ANN CLG .4% CONDNS DB=>MWB,7.7249630543E-002,0.4454670573,Pass,Pass,0.1754986557,0.7466580621,Pass,Pass
 Warmup Convergence Information,ZONE RETAIL POINT_OF_SALE A  - STORY GROUND,SizingPeriod: CLIMATE ZONE 3 ANN CLG .4% CONDNS DB=>MWB,4.4280610029E-002,0.2364131005,Pass,Pass,5.6549077844E-002,0.4202462029,Pass,Pass
 Warmup Convergence Information,ZONE RETAIL POINT_OF_SALE B  - STORY GROUND,SizingPeriod: CLIMATE ZONE 3 ANN CLG .4% CONDNS DB=>MWB,5.7245170507E-002,0.2850347464,Pass,Pass,3.6330747997E-002,0.2586264509,Pass,Pass
 Warmup Convergence Information,ZONE RETAIL POINT_OF_SALE C  - STORY GROUND,SizingPeriod: CLIMATE ZONE 3 ANN CLG .4% CONDNS DB=>MWB,4.4723086656E-002,0.2394208012,Pass,Pass,5.3607394198E-002,0.4243935140,Pass,Pass
 Warmup Convergence Information,ZONE RETAIL RETAIL A  - STORY GROUND,SizingPeriod: CLIMATE ZONE 3 ANN CLG .4% CONDNS DB=>MWB,8.3424050408E-002,0.3525194128,Pass,Pass,0.4381766267,4.6355928298,Pass,Pass
 Warmup Convergence Information,ZONE RETAIL RETAIL A END_A - STORY GROUND,SizingPeriod: CLIMATE ZONE 3 ANN CLG .4% CONDNS DB=>MWB,6.8593703622E-002,0.3391203474,Pass,Pass,0.1134241344,0.8179438879,Pass,Pass
 Warmup Convergence Information,ZONE RETAIL RETAIL B  - STORY GROUND,SizingPeriod: CLIMATE ZONE 3 ANN CLG .4% CONDNS DB=>MWB,8.3397527318E-002,0.3473509993,Pass,Pass,0.1386868364,1.3944494979,Pass,Pass
 Warmup Convergence Information,ZONE RETAIL RETAIL B END_A - STORY GROUND,SizingPeriod: CLIMATE ZONE 3 ANN CLG .4% CONDNS DB=>MWB,8.3421941170E-002,0.3700720746,Pass,Pass,0.3532886541,3.5225130027,Pass,Pass
 Warmup Convergence Information,ZONE RETAIL RETAIL C  - STORY GROUND,SizingPeriod: CLIMATE ZONE 3 ANN CLG .4% CONDNS DB=>MWB,8.3412098791E-002,0.3458391351,Pass,Pass,0.4105806654,4.3241186792,Pass,Pass
 Warmup Convergence Information,ZONE RETAIL RETAIL C END_A - STORY GROUND,SizingPeriod: CLIMATE ZONE 3 ANN CLG .4% CONDNS DB=>MWB,6.8071141756E-002,0.3234488624,Pass,Pass,0.1294363897,0.9383043064,Pass,Pass
Environment,CLIMATE ZONE 3 ANN CLG .4% CONDNS WB=>MDB,SizingPeriod:DesignDay,08/21,08/21,SummerDesignDay,1,N/A,N/A,N/A,N/A,N/A,N/A
Environment:Daylight Saving,No,SizingPeriod:DesignDay
Environment:Design Day Data,25.50,7.40,DefaultMultipliers,101301,290,4.9,0.00,No,No
Environment:Design Day Misc,233,1106.3,0.2000,0.1216,1.0,-3.33,12.4,ASHRAETau
Environment:WarmupDays,  6
 Warmup Convergence Information,ZONE RETAIL BACK_SPACE A  - STORY GROUND,SizingPeriod: CLIMATE ZONE 3 ANN CLG .4% CONDNS WB=>MDB,2.5143590907E-002,4.5990126169E-002,Pass,Pass,0.1654229186,0.5901280217,Pass,Pass
 Warmup Convergence Information,ZONE RETAIL BACK_SPACE A END_B - STORY GROUND,SizingPeriod: CLIMATE ZONE 3 ANN CLG .4% CONDNS WB=>MDB,3.8834932193E-002,8.2539791321E-002,Pass,Pass,8.6856582731E-002,0.2699827926,Pass,Pass
 Warmup Convergence Information,ZONE RETAIL BACK_SPACE B  - STORY GROUND,SizingPeriod: CLIMATE ZONE 3 ANN CLG .4% CONDNS WB=>MDB,1.6347165481E-002,3.0989631758E-002,Pass,Pass,4.2895984570E-002,0.2539082906,Pass,Pass
 Warmup Convergence Information,ZONE RETAIL BACK_SPACE B END_B - STORY GROUND,SizingPeriod: CLIMATE ZONE 3 ANN CLG .4% CONDNS WB=>MDB,3.1453442084E-002,7.2115638919E-002,Pass,Pass,8.8214283483E-002,0.3125874964,Pass,Pass
 Warmup Convergence Information,ZONE RETAIL BACK_SPACE C  - STORY GROUND,SizingPeriod: CLIMATE ZONE 3 ANN CLG .4% CONDNS WB=>MDB,2.4946472728E-002,4.6950677442E-002,Pass,Pass,0.1497266575,0.5403177350,Pass,Pass
 Warmup Convergence Information,ZONE RETAIL BACK_SPACE C END_B - STORY GROUND,SizingPeriod: CLIMATE ZONE 3 ANN CLG .4% CONDNS WB=>MDB,3.8813091258E-002,8.3260005021E-002,Pass,Pass,0.1034089723,0.4547853408,Pass,Pass
 Warmup Convergence Information,ZONE RETAIL ENTRY A  - STORY GROUND,SizingPeriod: CLIMATE ZONE 3 ANN CLG .4% CONDNS WB=>MDB,6.7068830469E-002,0.3783166118,Pass,Pass,0.2295689866,1.8361374820,Pass,Pass
 Warmup Convergence Information,ZONE RETAIL ENTRY B  - STORY GROUND,SizingPeriod: CLIMATE ZONE 3 ANN CLG .4% CONDNS WB=>MDB,7.7154897462E-002,0.4494730159,Pass,Pass,6.8549355796,81.1754542563,Pass,Pass
 Warmup Convergence Information,ZONE RETAIL ENTRY C  - STORY GROUND,SizingPeriod: CLIMATE ZONE 3 ANN CLG .4% CONDNS WB=>MDB,6.7342223182E-002,0.3798563471,Pass,Pass,0.2343899482,1.7667785142,Pass,Pass
 Warmup Convergence Information,ZONE RETAIL POINT_OF_SALE A  - STORY GROUND,SizingPeriod: CLIMATE ZONE 3 ANN CLG .4% CONDNS WB=>MDB,2.5675608118E-002,0.1180700174,Pass,Pass,3.4965451215E-002,0.2169602005,Pass,Pass
 Warmup Convergence Information,ZONE RETAIL POINT_OF_SALE B  - STORY GROUND,SizingPeriod: CLIMATE ZONE 3 ANN CLG .4% CONDNS WB=>MDB,3.9019311120E-002,0.1778620530,Pass,Pass,2.3079362280E-002,0.1498331057,Pass,Pass
 Warmup Convergence Information,ZONE RETAIL POINT_OF_SALE C  - STORY GROUND,SizingPeriod: CLIMATE ZONE 3 ANN CLG .4% CONDNS WB=>MDB,2.6081330286E-002,0.1201574295,Pass,Pass,3.1478518091E-002,0.2186387876,Pass,Pass
 Warmup Convergence Information,ZONE RETAIL RETAIL A  - STORY GROUND,SizingPeriod: CLIMATE ZONE 3 ANN CLG .4% CONDNS WB=>MDB,7.3656717905E-002,0.2733150618,Pass,Pass,0.7473383993,8.1251683886,Pass,Pass
 Warmup Convergence Information,ZONE RETAIL RETAIL A END_A - STORY GROUND,SizingPeriod: CLIMATE ZONE 3 ANN CLG .4% CONDNS WB=>MDB,4.9917281374E-002,0.2392248924,Pass,Pass,0.1305747491,0.9768578072,Pass,Pass
 Warmup Convergence Information,ZONE RETAIL RETAIL B  - STORY GROUND,SizingPeriod: CLIMATE ZONE 3 ANN CLG .4% CONDNS WB=>MDB,8.3404583002E-002,0.2931397945,Pass,Pass,9.8184450725E-002,0.8751435400,Pass,Pass
 Warmup Convergence Information,ZONE RETAIL RETAIL B END_A - STORY GROUND,SizingPeriod: CLIMATE ZONE 3 ANN CLG .4% CONDNS WB=>MDB,7.5255906354E-002,0.2914989756,Pass,Pass,1.8703541621,20.4177376356,Pass,Pass
 Warmup Convergence Information,ZONE RETAIL RETAIL C  - STORY GROUND,SizingPeriod: CLIMATE ZONE 3 ANN CLG .4% CONDNS WB=>MDB,7.4254063843E-002,0.2680983727,Pass,Pass,0.8643309508,9.5030515891,Pass,Pass
 Warmup Convergence Information,ZONE RETAIL RETAIL C END_A - STORY GROUND,SizingPeriod: CLIMATE ZONE 3 ANN CLG .4% CONDNS WB=>MDB,4.9384993118E-002,0.2274590237,Pass,Pass,0.1749355798,1.1782406375,Pass,Pass
Environment,CLIMATE ZONE 3 ANN HTG 99.6% CONDNS DB,SizingPeriod:DesignDay,01/21,01/21,WinterDesignDay,1,N/A,N/A,N/A,N/A,N/A,N/A
Environment:Daylight Saving,No,SizingPeriod:DesignDay
Environment:Design Day Data,2.90,0.00,DefaultMultipliers,101301,50,2.2,0.00,No,No
Environment:Design Day Misc, 21,1229.0,0.1415,5.7310E-002,1.0,-11.15,-20.1,ASHRAEClearSky
Environment:WarmupDays,  6
 Warmup Convergence Information,ZONE RETAIL BACK_SPACE A  - STORY GROUND,SizingPeriod: CLIMATE ZONE 3 ANN HTG 99.6% CONDNS DB,1.3344880756E-013,1.2635166162E-013,Pass,Pass,1.9278201999E-013,1.5230432912E-013,Pass,Pass
 Warmup Convergence Information,ZONE RETAIL BACK_SPACE A END_B - STORY GROUND,SizingPeriod: CLIMATE ZONE 3 ANN HTG 99.6% CONDNS DB,2.1479114783E-013,1.6679470219E-013,Pass,Pass,1.9179124692E-013,1.4494272264E-013,Pass,Pass
 Warmup Convergence Information,ZONE RETAIL BACK_SPACE B  - STORY GROUND,SizingPeriod: CLIMATE ZONE 3 ANN HTG 99.6% CONDNS DB,7.4483629141E-014,5.8642817748E-014,Pass,Pass,2.0676875399E-013,1.3832347406E-013,Pass,Pass
 Warmup Convergence Information,ZONE RETAIL BACK_SPACE B END_B - STORY GROUND,SizingPeriod: CLIMATE ZONE 3 ANN HTG 99.6% CONDNS DB,1.4632739465E-013,1.3124418212E-013,Pass,Pass,2.3345892208E-013,1.9513161619E-013,Pass,Pass
 Warmup Convergence Information,ZONE RETAIL BACK_SPACE C  - STORY GROUND,SizingPeriod: CLIMATE ZONE 3 ANN HTG 99.6% CONDNS DB,1.4405760535E-013,1.1571254889E-013,Pass,Pass,2.0068236036E-013,1.4631204603E-013,Pass,Pass
 Warmup Convergence Information,ZONE RETAIL BACK_SPACE C END_B - STORY GROUND,SizingPeriod: CLIMATE ZONE 3 ANN HTG 99.6% CONDNS DB,1.9584334154E-013,1.4955831906E-013,Pass,Pass,1.9461043831E-013,1.3701960844E-013,Pass,Pass
 Warmup Convergence Information,ZONE RETAIL ENTRY A  - STORY GROUND,SizingPeriod: CLIMATE ZONE 3 ANN HTG 99.6% CONDNS DB,3.0592812234E-015,2.5333804492E-015,Pass,Pass,3.6126631750E-013,4.5505067355E-013,Pass,Pass
 Warmup Convergence Information,ZONE RETAIL ENTRY B  - STORY GROUND,SizingPeriod: CLIMATE ZONE 3 ANN HTG 99.6% CONDNS DB,3.1826393373E-015,2.8310082425E-015,Pass,Pass,1.2344812889E-011,1.1471980324E-011,Pass,Pass
 Warmup Convergence Information,ZONE RETAIL ENTRY C  - STORY GROUND,SizingPeriod: CLIMATE ZONE 3 ANN HTG 99.6% CONDNS DB,3.6045240866E-014,3.0704575469E-014,Pass,Pass,7.8053805929E-013,6.6449597929E-013,Pass,Pass
 Warmup Convergence Information,ZONE RETAIL POINT_OF_SALE A  - STORY GROUND,SizingPeriod: CLIMATE ZONE 3 ANN HTG 99.6% CONDNS DB,4.5642502123E-014,4.5795184139E-014,Pass,Pass,2.1242377010E-013,1.9583897980E-013,Pass,Pass
 Warmup Convergence Information,ZONE RETAIL POINT_OF_SALE B  - STORY GROUND,SizingPeriod: CLIMATE ZONE 3 ANN HTG 99.6% CONDNS DB,7.5001733219E-015,7.7668212089E-015,Pass,Pass,1.5249886077E-012,1.4065047298E-012,Pass,Pass
 Warmup Convergence Information,ZONE RETAIL POINT_OF_SALE C  - STORY GROUND,SizingPeriod: CLIMATE ZONE 3 ANN HTG 99.6% CONDNS DB,4.3150668224E-014,4.9389550951E-014,Pass,Pass,1.5452648185E-013,1.6382611337E-013,Pass,Pass
 Warmup Convergence Information,ZONE RETAIL RETAIL A  - STORY GROUND,SizingPeriod: CLIMATE ZONE 3 ANN HTG 99.6% CONDNS DB,3.7698239592E-014,3.5790421703E-014,Pass,Pass,1.2513336440E-013,1.6248826472E-013,Pass,Pass
 Warmup Convergence Information,ZONE RETAIL RETAIL A END_A - STORY GROUND,SizingPeriod: CLIMATE ZONE 3 ANN HTG 99.6% CONDNS DB,8.4969068818E-014,6.6348374545E-014,Pass,Pass,2.1059978900E-013,1.7197881250E-013,Pass,Pass
 Warmup Convergence Information,ZONE RETAIL RETAIL B  - STORY GROUND,SizingPeriod: CLIMATE ZONE 3 ANN HTG 99.6% CONDNS DB,6.1925773151E-015,6.2768312839E-015,Pass,Pass,1.6995433148E-012,1.6025873504E-012,Pass,Pass
 Warmup Convergence Information,ZONE RETAIL RETAIL B END_A - STORY GROUND,SizingPeriod: CLIMATE ZONE 3 ANN HTG 99.6% CONDNS DB,3.2073109600E-015,2.4528109956E-015,Pass,Pass,1.4438555369E-013,1.6950688732E-013,Pass,Pass
 Warmup Convergence Information,ZONE RETAIL RETAIL C  - STORY GROUND,SizingPeriod: CLIMATE ZONE 3 ANN HTG 99.6% CONDNS DB,6.8315723449E-014,4.5010229984E-014,Pass,Pass,2.9848040362E-013,2.3204370514E-013,Pass,Pass
 Warmup Convergence Information,ZONE RETAIL RETAIL C END_A - STORY GROUND,SizingPeriod: CLIMATE ZONE 3 ANN HTG 99.6% CONDNS DB,1.0103029524E-013,6.8941462861E-014,Pass,Pass,2.0747080896E-013,1.5715014036E-013,Pass,Pass
Environment,RUN PERIOD 1,WeatherFileRunPeriod,01/01,12/31,Thursday,365,Use RunPeriod Specified Day,No,No,No,Yes,Yes
Environment:Daylight Saving,No,RunPeriod Object
Environment:WarmupDays,  6
 Warmup Convergence Information,ZONE RETAIL BACK_SPACE A  - STORY GROUND,RunPeriod: RUN PERIOD 1,0.1167257820,0.3960803340,Pass,Pass,0.4386708496,3.1831517709,Pass,Pass
 Warmup Convergence Information,ZONE RETAIL BACK_SPACE A END_B - STORY GROUND,RunPeriod: RUN PERIOD 1,0.1166735799,0.4451733342,Pass,Pass,0.4688827337,4.0526777537,Pass,Pass
 Warmup Convergence Information,ZONE RETAIL BACK_SPACE B  - STORY GROUND,RunPeriod: RUN PERIOD 1,7.6549409760E-002,0.2936470533,Pass,Pass,0.6661535866,4.2656334709,Pass,Pass
 Warmup Convergence Information,ZONE RETAIL BACK_SPACE B END_B - STORY GROUND,RunPeriod: RUN PERIOD 1,7.5547498594E-002,0.4034262569,Pass,Pass,0.1801052173,0.4029061808,Pass,Pass
 Warmup Convergence Information,ZONE RETAIL BACK_SPACE C  - STORY GROUND,RunPeriod: RUN PERIOD 1,7.5005583116E-002,0.3969401528,Pass,Pass,0.1599620619,0.3458488873,Pass,Pass
 Warmup Convergence Information,ZONE RETAIL BACK_SPACE C END_B - STORY GROUND,RunPeriod: RUN PERIOD 1,7.5008176897E-002,0.4470488217,Pass,Pass,1.1466125670,12.7160540602,Pass,Pass
 Warmup Convergence Information,ZONE RETAIL ENTRY A  - STORY GROUND,RunPeriod: RUN PERIOD 1,0.1642426141,0.4468967088,Pass,Pass,0.1787133257,0.4701714551,Pass,Pass
 Warmup Convergence Information,ZONE RETAIL ENTRY B  - STORY GROUND,RunPeriod: RUN PERIOD 1,0.1505640345,0.4492705262,Pass,Pass,0.3027962206,0.9008860167,Pass,Pass
 Warmup Convergence Information,ZONE RETAIL ENTRY C  - STORY GROUND,RunPeriod: RUN PERIOD 1,0.1287819809,0.4456573341,Pass,Pass,0.2050708748,0.5723229979,Pass,Pass
 Warmup Convergence Information,ZONE RETAIL POINT_OF_SALE A  - STORY GROUND,RunPeriod: RUN PERIOD 1,0.1166704869,0.4580983057,Pass,Pass,0.1650216728,0.6202667745,Pass,Pass
 Warmup Convergence Information,ZONE RETAIL POINT_OF_SALE B  - STORY GROUND,RunPeriod: RUN PERIOD 1,9.8949750364E-002,0.4390880334,Pass,Pass,0.2681022795,1.1262505308,Pass,Pass
 Warmup Convergence Information,ZONE RETAIL POINT_OF_SALE C  - STORY GROUND,RunPeriod: RUN PERIOD 1,9.2073475430E-002,0.4597171862,Pass,Pass,0.1679958417,0.4835659839,Pass,Pass
 Warmup Convergence Information,ZONE RETAIL RETAIL A  - STORY GROUND,RunPeriod: RUN PERIOD 1,0.1168668526,0.4447773210,Pass,Pass,0.2016764935,0.5011500676,Pass,Pass
 Warmup Convergence Information,ZONE RETAIL RETAIL A END_A - STORY GROUND,RunPeriod: RUN PERIOD 1,0.1170260060,0.4498007773,Pass,Pass,0.1616540863,0.3389640249,Pass,Pass
 Warmup Convergence Information,ZONE RETAIL RETAIL B  - STORY GROUND,RunPeriod: RUN PERIOD 1,0.1178830837,0.4305258278,Pass,Pass,0.1135488912,0.2789087894,Pass,Pass
 Warmup Convergence Information,ZONE RETAIL RETAIL B END_A - STORY GROUND,RunPeriod: RUN PERIOD 1,0.1168372297,0.4414971947,Pass,Pass,0.2272459659,0.9635065005,Pass,Pass
 Warmup Convergence Information,ZONE RETAIL RETAIL C  - STORY GROUND,RunPeriod: RUN PERIOD 1,0.1171860706,0.4401644151,Pass,Pass,0.6769763480,6.2628345241,Pass,Pass
 Warmup Convergence Information,ZONE RETAIL RETAIL C END_A - STORY GROUND,RunPeriod: RUN PERIOD 1,0.1166770767,0.4437627302,Pass,Pass,0.1876540257,0.4128523448,Pass,Pass
! <Program Control Information:Threads/Parallel Sims>, Threading Supported,Maximum Number of Threads, Env Set Threads (OMP_NUM_THREADS), EP Env Set Threads (EP_OMP_NUM_THREADS), IDF Set Threads, Number of Threads Used (Interior Radiant Exchange), Number Nominal Surfaces, Number Parallel Sims
Program Control:Threads/Parallel Sims, No,1, N/A, N/A, N/A, N/A, N/A, N/A
End of Data
