Program Version,EnergyPlus, Version 8.7.0-78a111df4a, YMD=2018.03.01 18:55
! This file shows details about the branches, nodes, and other
! elements of the flow connections.
! This file is intended for use in "debugging" potential problems
! that may also be detected by the program, but may be more easily
! identified by "eye".
! This file is also intended to support software which draws a
! schematic diagram of the HVAC system.
! ===============================================================
! #Nodes,<Number of Unique Nodes>
 #Nodes,172
! <Node>,<NodeNumber>,<Node Name>,<Node Fluid Type>,<# Times Node Referenced After Definition>
 Node,1,NODE 74,Air,4
 Node,2,NODE 105,Air,4
 Node,3,NODE 136,Air,4
 Node,4,NODE 79,Air,4
 Node,5,NODE 100,Air,4
 Node,6,NODE 141,Air,4
 Node,7,NODE 69,Air,4
 Node,8,NODE 86,Air,4
 Node,9,NODE 122,Air,4
 Node,10,NODE 50,Air,4
 Node,11,NODE 110,Air,4
 Node,12,NODE 151,Air,4
 Node,13,NODE 64,Air,4
 Node,14,NODE 115,Air,4
 Node,15,NODE 146,Air,4
 Node,16,NODE 47,Air,10
 Node,17,NODE 48,Air,3
 Node,18,NODE 83,Air,10
 Node,19,NODE 84,Air,3
 Node,20,NODE 119,Air,10
 Node,21,NODE 120,Air,3
 Node,22,NODE 46,Air,3
 Node,23,NODE 57,Air,6
 Node,24,NODE 54,Air,6
 Node,25,NODE 51,Air,8
 Node,26,NODE 82,Air,3
 Node,27,NODE 93,Air,6
 Node,28,NODE 90,Air,6
 Node,29,NODE 87,Air,8
 Node,30,NODE 118,Air,3
 Node,31,NODE 129,Air,6
 Node,32,NODE 126,Air,6
 Node,33,NODE 123,Air,8
 Node,34,NODE 32,Water,2
 Node,35,NODE 38,Water,1
 Node,36,NODE 34,Water,1
 Node,37,NODE 39,Water,1
 Node,38,NODE 40,Water,1
 Node,39,NODE 41,Water,1
 Node,40,NODE 43,Water,1
 Node,41,NODE 33,Water,4
 Node,42,NODE 35,Water,2
 Node,43,NODE 44,Water,1
 Node,44,NODE 37,Water,1
 Node,45,NODE 42,Water,1
 Node,46,NODE 52,Water,2
 Node,47,NODE 53,Water,1
 Node,48,NODE 58,Water,1
 Node,49,NODE 59,Water,1
 Node,50,NODE 62,Water,1
 Node,51,NODE 63,Water,1
 Node,52,NODE 67,Water,1
 Node,53,NODE 68,Water,1
 Node,54,NODE 72,Water,1
 Node,55,NODE 73,Water,1
 Node,56,NODE 77,Water,1
 Node,57,NODE 78,Water,1
 Node,58,NODE 88,Water,2
 Node,59,NODE 89,Water,1
 Node,60,NODE 94,Water,1
 Node,61,NODE 95,Water,1
 Node,62,NODE 98,Water,1
 Node,63,NODE 99,Water,1
 Node,64,NODE 103,Water,1
 Node,65,NODE 104,Water,1
 Node,66,NODE 108,Water,1
 Node,67,NODE 109,Water,1
 Node,68,NODE 113,Water,1
 Node,69,NODE 114,Water,1
 Node,70,NODE 124,Water,2
 Node,71,NODE 125,Water,1
 Node,72,NODE 130,Water,1
 Node,73,NODE 131,Water,1
 Node,74,NODE 134,Water,1
 Node,75,NODE 135,Water,1
 Node,76,NODE 139,Water,1
 Node,77,NODE 140,Water,1
 Node,78,NODE 144,Water,1
 Node,79,NODE 145,Water,1
 Node,80,NODE 149,Water,1
 Node,81,NODE 150,Water,1
 Node,82,HOT WATER LOOP DEMAND BYPASS PIPE INLET NODE,Water,1
 Node,83,HOT WATER LOOP DEMAND BYPASS PIPE OUTLET NODE,Water,1
 Node,84,NODE 45,Water,1
 Node,85,NODE 36,Water,2
 Node,86,NODE 16,Water,2
 Node,87,NODE 22,Water,1
 Node,88,NODE 18,Water,1
 Node,89,NODE 23,Water,1
 Node,90,NODE 24,Water,1
 Node,91,NODE 25,Water,1
 Node,92,NODE 27,Water,1
 Node,93,NODE 17,Water,4
 Node,94,NODE 19,Water,2
 Node,95,NODE 28,Water,1
 Node,96,NODE 21,Water,1
 Node,97,NODE 26,Water,1
 Node,98,NODE 30,Water,1
 Node,99,NODE 31,Water,1
 Node,100,OFFICE SHARED SERVICE WATER LOOP DEMAND BYPASS PIPE INLET NODE,Water,1
 Node,101,OFFICE SHARED SERVICE WATER LOOP DEMAND BYPASS PIPE OUTLET NODE,Water,1
 Node,102,NODE 29,Water,1
 Node,103,NODE 20,Water,2
 Node,104,NODE 55,Air,2
 Node,105,NODE 91,Air,2
 Node,106,NODE 127,Air,2
 Node,107,NODE 5,Air,0
 Node,108,NODE 75,Air,1
 Node,109,NODE 10,Air,0
 Node,110,NODE 106,Air,1
 Node,111,NODE 15,Air,0
 Node,112,NODE 137,Air,1
 Node,113,NODE 3,Air,0
 Node,114,NODE 80,Air,1
 Node,115,NODE 8,Air,0
 Node,116,NODE 101,Air,1
 Node,117,NODE 13,Air,0
 Node,118,NODE 142,Air,1
 Node,119,NODE 2,Air,0
 Node,120,NODE 70,Air,1
 Node,121,NODE 7,Air,0
 Node,122,NODE 96,Air,1
 Node,123,NODE 12,Air,0
 Node,124,NODE 132,Air,1
 Node,125,NODE 4,Air,0
 Node,126,NODE 60,Air,1
 Node,127,NODE 9,Air,0
 Node,128,NODE 111,Air,1
 Node,129,NODE 14,Air,0
 Node,130,NODE 152,Air,1
 Node,131,NODE 1,Air,0
 Node,132,NODE 65,Air,1
 Node,133,NODE 6,Air,0
 Node,134,NODE 116,Air,1
 Node,135,NODE 11,Air,0
 Node,136,NODE 147,Air,1
 Node,137,NODE 49,Air,2
 Node,138,NODE 85,Air,2
 Node,139,NODE 121,Air,2
 Node,140,NODE 61,Air,1
 Node,141,NODE 66,Air,1
 Node,142,NODE 71,Air,1
 Node,143,NODE 76,Air,1
 Node,144,NODE 81,Air,1
 Node,145,NODE 97,Air,1
 Node,146,NODE 102,Air,1
 Node,147,NODE 107,Air,1
 Node,148,NODE 112,Air,1
 Node,149,NODE 117,Air,1
 Node,150,NODE 133,Air,1
 Node,151,NODE 138,Air,1
 Node,152,NODE 143,Air,1
 Node,153,NODE 148,Air,1
 Node,154,NODE 153,Air,1
 Node,155,ZONE CORE SPACE - STORY GROUND VAV TERM DAMPER OUTLET,Air,1
 Node,156,ZONE CORE SPACE - STORY MID VAV TERM DAMPER OUTLET,Air,1
 Node,157,ZONE CORE SPACE - STORY TOP VAV TERM DAMPER OUTLET,Air,1
 Node,158,ZONE EAST PERIMETER SPACE - STORY GROUND VAV TERM DAMPER OUTLET,Air,1
 Node,159,ZONE EAST PERIMETER SPACE - STORY MID VAV TERM DAMPER OUTLET,Air,1
 Node,160,ZONE EAST PERIMETER SPACE - STORY TOP VAV TERM DAMPER OUTLET,Air,1
 Node,161,ZONE NORTH PERIMETER SPACE - STORY GROUND VAV TERM DAMPER OUTLET,Air,1
 Node,162,ZONE NORTH PERIMETER SPACE - STORY MID VAV TERM DAMPER OUTLET,Air,1
 Node,163,ZONE NORTH PERIMETER SPACE - STORY TOP VAV TERM DAMPER OUTLET,Air,1
 Node,164,ZONE SOUTH PERIMETER SPACE - STORY GROUND VAV TERM DAMPER OUTLET,Air,1
 Node,165,ZONE SOUTH PERIMETER SPACE - STORY MID VAV TERM DAMPER OUTLET,Air,1
 Node,166,ZONE SOUTH PERIMETER SPACE - STORY TOP VAV TERM DAMPER OUTLET,Air,1
 Node,167,ZONE WEST PERIMETER SPACE - STORY GROUND VAV TERM DAMPER OUTLET,Air,1
 Node,168,ZONE WEST PERIMETER SPACE - STORY MID VAV TERM DAMPER OUTLET,Air,1
 Node,169,ZONE WEST PERIMETER SPACE - STORY TOP VAV TERM DAMPER OUTLET,Air,1
 Node,170,NODE 56,Air,1
 Node,171,NODE 92,Air,1
 Node,172,NODE 128,Air,1
! ===============================================================
! Suspicious nodes have 0 references.  It is normal for some nodes, however.
! Listing nodes with 0 references (culled from previous list):
! <Suspicious Node>,<NodeNumber>,<Node Name>,<Node Fluid Type>,<# Times Node Referenced After Definition>
 Suspicious Node,107,NODE 5,Air,0
 Suspicious Node,109,NODE 10,Air,0
 Suspicious Node,111,NODE 15,Air,0
 Suspicious Node,113,NODE 3,Air,0
 Suspicious Node,115,NODE 8,Air,0
 Suspicious Node,117,NODE 13,Air,0
 Suspicious Node,119,NODE 2,Air,0
 Suspicious Node,121,NODE 7,Air,0
 Suspicious Node,123,NODE 12,Air,0
 Suspicious Node,125,NODE 4,Air,0
 Suspicious Node,127,NODE 9,Air,0
 Suspicious Node,129,NODE 14,Air,0
 Suspicious Node,131,NODE 1,Air,0
 Suspicious Node,133,NODE 6,Air,0
 Suspicious Node,135,NODE 11,Air,0
! ===============================================================
! <#Branch Lists>,<Number of Branch Lists>
 #Branch Lists,7
! <Branch List>,<Branch List Count>,<Branch List Name>,<Loop Name>,<Loop Type>,<Number of Branches>
! <Branch>,<Branch Count>,<Branch Name>,<Loop Name>,<Loop Type>,<Branch Inlet Node Name>,<Branch Outlet Node Name>
 Branch List,1,5 ZONE PVAV SUPPLY BRANCHES,5 ZONE PVAV,Air,1
   Branch,1,5 ZONE PVAV MAIN BRANCH,5 ZONE PVAV,Air,NODE 46,NODE 47
 Branch List,2,5 ZONE PVAV 1 SUPPLY BRANCHES,5 ZONE PVAV 1,Air,1
   Branch,1,5 ZONE PVAV 1 MAIN BRANCH,5 ZONE PVAV 1,Air,NODE 82,NODE 83
 Branch List,3,5 ZONE PVAV 2 SUPPLY BRANCHES,5 ZONE PVAV 2,Air,1
   Branch,1,5 ZONE PVAV 2 MAIN BRANCH,5 ZONE PVAV 2,Air,NODE 118,NODE 119
 Branch List,4,HOT WATER LOOP SUPPLY BRANCHES,HOT WATER LOOP,Plant Supply,4
   Branch,1,HOT WATER LOOP SUPPLY INLET BRANCH,HOT WATER LOOP,Plant Supply,NODE 32,NODE 38
   Branch,2,HOT WATER LOOP SUPPLY BRANCH 1,HOT WATER LOOP,Plant Supply,NODE 34,NODE 39
   Branch,3,HOT WATER LOOP SUPPLY BRANCH 2,HOT WATER LOOP,Plant Supply,NODE 40,NODE 41
   Branch,4,HOT WATER LOOP SUPPLY OUTLET BRANCH,HOT WATER LOOP,Plant Supply,NODE 43,NODE 33
 Branch List,5,HOT WATER LOOP DEMAND BRANCHES,HOT WATER LOOP,Plant Demand,22
   Branch,1,HOT WATER LOOP DEMAND INLET BRANCH,HOT WATER LOOP,Plant Demand,NODE 35,NODE 44
   Branch,2,HOT WATER LOOP DEMAND BRANCH 1,HOT WATER LOOP,Plant Demand,NODE 37,NODE 42
   Branch,3,HOT WATER LOOP DEMAND BRANCH 2,HOT WATER LOOP,Plant Demand,NODE 52,NODE 53
   Branch,4,HOT WATER LOOP DEMAND BRANCH 3,HOT WATER LOOP,Plant Demand,NODE 58,NODE 59
   Branch,5,HOT WATER LOOP DEMAND BRANCH 4,HOT WATER LOOP,Plant Demand,NODE 62,NODE 63
   Branch,6,HOT WATER LOOP DEMAND BRANCH 5,HOT WATER LOOP,Plant Demand,NODE 67,NODE 68
   Branch,7,HOT WATER LOOP DEMAND BRANCH 6,HOT WATER LOOP,Plant Demand,NODE 72,NODE 73
   Branch,8,HOT WATER LOOP DEMAND BRANCH 7,HOT WATER LOOP,Plant Demand,NODE 77,NODE 78
   Branch,9,HOT WATER LOOP DEMAND BRANCH 8,HOT WATER LOOP,Plant Demand,NODE 88,NODE 89
   Branch,10,HOT WATER LOOP DEMAND BRANCH 9,HOT WATER LOOP,Plant Demand,NODE 94,NODE 95
   Branch,11,HOT WATER LOOP DEMAND BRANCH 10,HOT WATER LOOP,Plant Demand,NODE 98,NODE 99
   Branch,12,HOT WATER LOOP DEMAND BRANCH 11,HOT WATER LOOP,Plant Demand,NODE 103,NODE 104
   Branch,13,HOT WATER LOOP DEMAND BRANCH 12,HOT WATER LOOP,Plant Demand,NODE 108,NODE 109
   Branch,14,HOT WATER LOOP DEMAND BRANCH 13,HOT WATER LOOP,Plant Demand,NODE 113,NODE 114
   Branch,15,HOT WATER LOOP DEMAND BRANCH 14,HOT WATER LOOP,Plant Demand,NODE 124,NODE 125
   Branch,16,HOT WATER LOOP DEMAND BRANCH 15,HOT WATER LOOP,Plant Demand,NODE 130,NODE 131
   Branch,17,HOT WATER LOOP DEMAND BRANCH 16,HOT WATER LOOP,Plant Demand,NODE 134,NODE 135
   Branch,18,HOT WATER LOOP DEMAND BRANCH 17,HOT WATER LOOP,Plant Demand,NODE 139,NODE 140
   Branch,19,HOT WATER LOOP DEMAND BRANCH 18,HOT WATER LOOP,Plant Demand,NODE 144,NODE 145
   Branch,20,HOT WATER LOOP DEMAND BRANCH 19,HOT WATER LOOP,Plant Demand,NODE 149,NODE 150
   Branch,21,HOT WATER LOOP DEMAND BYPASS BRANCH,HOT WATER LOOP,Plant Demand,HOT WATER LOOP DEMAND BYPASS PIPE INLET NODE,HOT WATER LOOP DEMAND BYPASS PIPE OUTLET NODE
   Branch,22,HOT WATER LOOP DEMAND OUTLET BRANCH,HOT WATER LOOP,Plant Demand,NODE 45,NODE 36
 Branch List,6,OFFICE SHARED SERVICE WATER LOOP SUPPLY BRANCHES,OFFICE SHARED SERVICE WATER LOOP,Plant Supply,4
   Branch,1,OFFICE SHARED SERVICE WATER LOOP SUPPLY INLET BRANCH,OFFICE SHARED SERVICE WATER LOOP,Plant Supply,NODE 16,NODE 22
   Branch,2,OFFICE SHARED SERVICE WATER LOOP SUPPLY BRANCH 1,OFFICE SHARED SERVICE WATER LOOP,Plant Supply,NODE 18,NODE 23
   Branch,3,OFFICE SHARED SERVICE WATER LOOP SUPPLY BRANCH 2,OFFICE SHARED SERVICE WATER LOOP,Plant Supply,NODE 24,NODE 25
   Branch,4,OFFICE SHARED SERVICE WATER LOOP SUPPLY OUTLET BRANCH,OFFICE SHARED SERVICE WATER LOOP,Plant Supply,NODE 27,NODE 17
 Branch List,7,OFFICE SHARED SERVICE WATER LOOP DEMAND BRANCHES,OFFICE SHARED SERVICE WATER LOOP,Plant Demand,5
   Branch,1,OFFICE SHARED SERVICE WATER LOOP DEMAND INLET BRANCH,OFFICE SHARED SERVICE WATER LOOP,Plant Demand,NODE 19,NODE 28
   Branch,2,OFFICE SHARED SERVICE WATER LOOP DEMAND BRANCH 1,OFFICE SHARED SERVICE WATER LOOP,Plant Demand,NODE 21,NODE 26
   Branch,3,OFFICE SHARED SERVICE WATER LOOP DEMAND BRANCH 2,OFFICE SHARED SERVICE WATER LOOP,Plant Demand,NODE 30,NODE 31
   Branch,4,OFFICE SHARED SERVICE WATER LOOP DEMAND BYPASS BRANCH,OFFICE SHARED SERVICE WATER LOOP,Plant Demand,OFFICE SHARED SERVICE WATER LOOP DEMAND BYPASS PIPE INLET NODE,OFFICE SHARED SERVICE WATER LOOP DEMAND BYPASS PIPE OUTLET NODE
   Branch,5,OFFICE SHARED SERVICE WATER LOOP DEMAND OUTLET BRANCH,OFFICE SHARED SERVICE WATER LOOP,Plant Demand,NODE 29,NODE 20
! ===============================================================
! <#Supply Air Paths>,<Number of Supply Air Paths>
 #Supply Air Paths,3
! <Supply Air Path>,<Supply Air Path Count>,<Supply Air Path Name>,<AirLoopHVAC Name>
! <#Components on Supply Air Path>,<Number of Components>
! <Supply Air Path Component>,<Component Count>,<Component Type>,<Component Name>,<AirLoopHVAC Name>
! <#Outlet Nodes on Supply Air Path Component>,<Number of Nodes>
! <Supply Air Path Component Nodes>,<Node Count>,<Component Type>,<Component Name>,<Inlet Node Name>,<Outlet Node Name>,<AirLoopHVAC Name>
 Supply Air Path,1,5 ZONE PVAV NODE 48 SUPPLY PATH,5 ZONE PVAV
   #Components on Supply Air Path,1
   Supply Air Path Component,1,AIRLOOPHVAC:ZONESPLITTER,AIR LOOP HVAC ZONE SPLITTER 1,5 ZONE PVAV
     #Outlet Nodes on Supply Air Path Component,5
     Supply Air Path Component Nodes,1,AIRLOOPHVAC:ZONESPLITTER,AIR LOOP HVAC ZONE SPLITTER 1,NODE 48,NODE 61,5 ZONE PVAV
     Supply Air Path Component Nodes,2,AIRLOOPHVAC:ZONESPLITTER,AIR LOOP HVAC ZONE SPLITTER 1,NODE 48,NODE 66,5 ZONE PVAV
     Supply Air Path Component Nodes,3,AIRLOOPHVAC:ZONESPLITTER,AIR LOOP HVAC ZONE SPLITTER 1,NODE 48,NODE 71,5 ZONE PVAV
     Supply Air Path Component Nodes,4,AIRLOOPHVAC:ZONESPLITTER,AIR LOOP HVAC ZONE SPLITTER 1,NODE 48,NODE 76,5 ZONE PVAV
     Supply Air Path Component Nodes,5,AIRLOOPHVAC:ZONESPLITTER,AIR LOOP HVAC ZONE SPLITTER 1,NODE 48,NODE 81,5 ZONE PVAV
! <#Nodes on Supply Air Path>,<Number of Nodes>
! <Supply Air Path Node>,<Node Type>,<Node Count>,<Node Name>,<AirLoopHVAC Name>
#Nodes on Supply Air Path,6
   Supply Air Path Node,Inlet Node,1,NODE 48,5 ZONE PVAV
   Supply Air Path Node,Outlet Node,2,NODE 61,5 ZONE PVAV
   Supply Air Path Node,Outlet Node,3,NODE 66,5 ZONE PVAV
   Supply Air Path Node,Outlet Node,4,NODE 71,5 ZONE PVAV
   Supply Air Path Node,Outlet Node,5,NODE 76,5 ZONE PVAV
   Supply Air Path Node,Outlet Node,6,NODE 81,5 ZONE PVAV
 Supply Air Path,2,5 ZONE PVAV 1 NODE 84 SUPPLY PATH,5 ZONE PVAV 1
   #Components on Supply Air Path,1
   Supply Air Path Component,1,AIRLOOPHVAC:ZONESPLITTER,AIR LOOP HVAC ZONE SPLITTER 2,5 ZONE PVAV 1
     #Outlet Nodes on Supply Air Path Component,5
     Supply Air Path Component Nodes,1,AIRLOOPHVAC:ZONESPLITTER,AIR LOOP HVAC ZONE SPLITTER 2,NODE 84,NODE 97,5 ZONE PVAV 1
     Supply Air Path Component Nodes,2,AIRLOOPHVAC:ZONESPLITTER,AIR LOOP HVAC ZONE SPLITTER 2,NODE 84,NODE 102,5 ZONE PVAV 1
     Supply Air Path Component Nodes,3,AIRLOOPHVAC:ZONESPLITTER,AIR LOOP HVAC ZONE SPLITTER 2,NODE 84,NODE 107,5 ZONE PVAV 1
     Supply Air Path Component Nodes,4,AIRLOOPHVAC:ZONESPLITTER,AIR LOOP HVAC ZONE SPLITTER 2,NODE 84,NODE 112,5 ZONE PVAV 1
     Supply Air Path Component Nodes,5,AIRLOOPHVAC:ZONESPLITTER,AIR LOOP HVAC ZONE SPLITTER 2,NODE 84,NODE 117,5 ZONE PVAV 1
! <#Nodes on Supply Air Path>,<Number of Nodes>
! <Supply Air Path Node>,<Node Type>,<Node Count>,<Node Name>,<AirLoopHVAC Name>
#Nodes on Supply Air Path,6
   Supply Air Path Node,Inlet Node,1,NODE 84,5 ZONE PVAV 1
   Supply Air Path Node,Outlet Node,2,NODE 97,5 ZONE PVAV 1
   Supply Air Path Node,Outlet Node,3,NODE 102,5 ZONE PVAV 1
   Supply Air Path Node,Outlet Node,4,NODE 107,5 ZONE PVAV 1
   Supply Air Path Node,Outlet Node,5,NODE 112,5 ZONE PVAV 1
   Supply Air Path Node,Outlet Node,6,NODE 117,5 ZONE PVAV 1
 Supply Air Path,3,5 ZONE PVAV 2 NODE 120 SUPPLY PATH,5 ZONE PVAV 2
   #Components on Supply Air Path,1
   Supply Air Path Component,1,AIRLOOPHVAC:ZONESPLITTER,AIR LOOP HVAC ZONE SPLITTER 3,5 ZONE PVAV 2
     #Outlet Nodes on Supply Air Path Component,5
     Supply Air Path Component Nodes,1,AIRLOOPHVAC:ZONESPLITTER,AIR LOOP HVAC ZONE SPLITTER 3,NODE 120,NODE 133,5 ZONE PVAV 2
     Supply Air Path Component Nodes,2,AIRLOOPHVAC:ZONESPLITTER,AIR LOOP HVAC ZONE SPLITTER 3,NODE 120,NODE 138,5 ZONE PVAV 2
     Supply Air Path Component Nodes,3,AIRLOOPHVAC:ZONESPLITTER,AIR LOOP HVAC ZONE SPLITTER 3,NODE 120,NODE 143,5 ZONE PVAV 2
     Supply Air Path Component Nodes,4,AIRLOOPHVAC:ZONESPLITTER,AIR LOOP HVAC ZONE SPLITTER 3,NODE 120,NODE 148,5 ZONE PVAV 2
     Supply Air Path Component Nodes,5,AIRLOOPHVAC:ZONESPLITTER,AIR LOOP HVAC ZONE SPLITTER 3,NODE 120,NODE 153,5 ZONE PVAV 2
! <#Nodes on Supply Air Path>,<Number of Nodes>
! <Supply Air Path Node>,<Node Type>,<Node Count>,<Node Name>,<AirLoopHVAC Name>
#Nodes on Supply Air Path,6
   Supply Air Path Node,Inlet Node,1,NODE 120,5 ZONE PVAV 2
   Supply Air Path Node,Outlet Node,2,NODE 133,5 ZONE PVAV 2
   Supply Air Path Node,Outlet Node,3,NODE 138,5 ZONE PVAV 2
   Supply Air Path Node,Outlet Node,4,NODE 143,5 ZONE PVAV 2
   Supply Air Path Node,Outlet Node,5,NODE 148,5 ZONE PVAV 2
   Supply Air Path Node,Outlet Node,6,NODE 153,5 ZONE PVAV 2
! ===============================================================
! <#Return Air Paths>,<Number of Return Air Paths>
 #Return Air Paths,3
! <Return Air Path>,<Return Air Path Count>,<Return Air Path Name>,<AirLoopHVAC Name>
! <#Components on Return Air Path>,<Number of Components>
! <Return Air Path Component>,<Component Count>,<Component Type>,<Component Name>,<AirLoopHVAC Name>
! <#Inlet Nodes on Return Air Path Component>,<Number of Nodes>
! <Return Air Path Component Nodes>,<Node Count>,<Component Type>,<Component Name>,<Inlet Node Name>,<Outlet Node Name>,<AirLoopHVAC Name>
 Return Air Path,1,5 ZONE PVAV RETURN PATH,5 ZONE PVAV
   #Components on Return Air Path,1
   Return Air Path Component,1,AIRLOOPHVAC:ZONEMIXER,AIR LOOP HVAC ZONE MIXER 1,5 ZONE PVAV
     #Inlet Nodes on Return Air Path Component,5
     Return Air Path Component Nodes,1,AIRLOOPHVAC:ZONEMIXER,AIR LOOP HVAC ZONE MIXER 1,NODE 60,NODE 49,5 ZONE PVAV
     Return Air Path Component Nodes,2,AIRLOOPHVAC:ZONEMIXER,AIR LOOP HVAC ZONE MIXER 1,NODE 65,NODE 49,5 ZONE PVAV
     Return Air Path Component Nodes,3,AIRLOOPHVAC:ZONEMIXER,AIR LOOP HVAC ZONE MIXER 1,NODE 70,NODE 49,5 ZONE PVAV
     Return Air Path Component Nodes,4,AIRLOOPHVAC:ZONEMIXER,AIR LOOP HVAC ZONE MIXER 1,NODE 75,NODE 49,5 ZONE PVAV
     Return Air Path Component Nodes,5,AIRLOOPHVAC:ZONEMIXER,AIR LOOP HVAC ZONE MIXER 1,NODE 80,NODE 49,5 ZONE PVAV
! <#Nodes on Return Air Path>,<Number of Nodes>
! <Return Air Path Node>,<Node Type>,<Node Count>,<Node Name>,<AirLoopHVAC Name>
   #Nodes on Return Air Path,6
   Return Air Path Node,Outlet Node,1,NODE 49,5 ZONE PVAV
   Return Air Path Node,Inlet Node,2,NODE 60,5 ZONE PVAV
   Return Air Path Node,Inlet Node,3,NODE 65,5 ZONE PVAV
   Return Air Path Node,Inlet Node,4,NODE 70,5 ZONE PVAV
   Return Air Path Node,Inlet Node,5,NODE 75,5 ZONE PVAV
   Return Air Path Node,Inlet Node,6,NODE 80,5 ZONE PVAV
 Return Air Path,2,5 ZONE PVAV 1 RETURN PATH,5 ZONE PVAV 1
   #Components on Return Air Path,1
   Return Air Path Component,1,AIRLOOPHVAC:ZONEMIXER,AIR LOOP HVAC ZONE MIXER 2,5 ZONE PVAV 1
     #Inlet Nodes on Return Air Path Component,5
     Return Air Path Component Nodes,1,AIRLOOPHVAC:ZONEMIXER,AIR LOOP HVAC ZONE MIXER 2,NODE 96,NODE 85,5 ZONE PVAV 1
     Return Air Path Component Nodes,2,AIRLOOPHVAC:ZONEMIXER,AIR LOOP HVAC ZONE MIXER 2,NODE 101,NODE 85,5 ZONE PVAV 1
     Return Air Path Component Nodes,3,AIRLOOPHVAC:ZONEMIXER,AIR LOOP HVAC ZONE MIXER 2,NODE 106,NODE 85,5 ZONE PVAV 1
     Return Air Path Component Nodes,4,AIRLOOPHVAC:ZONEMIXER,AIR LOOP HVAC ZONE MIXER 2,NODE 111,NODE 85,5 ZONE PVAV 1
     Return Air Path Component Nodes,5,AIRLOOPHVAC:ZONEMIXER,AIR LOOP HVAC ZONE MIXER 2,NODE 116,NODE 85,5 ZONE PVAV 1
! <#Nodes on Return Air Path>,<Number of Nodes>
! <Return Air Path Node>,<Node Type>,<Node Count>,<Node Name>,<AirLoopHVAC Name>
   #Nodes on Return Air Path,6
   Return Air Path Node,Outlet Node,1,NODE 85,5 ZONE PVAV 1
   Return Air Path Node,Inlet Node,2,NODE 96,5 ZONE PVAV 1
   Return Air Path Node,Inlet Node,3,NODE 101,5 ZONE PVAV 1
   Return Air Path Node,Inlet Node,4,NODE 106,5 ZONE PVAV 1
   Return Air Path Node,Inlet Node,5,NODE 111,5 ZONE PVAV 1
   Return Air Path Node,Inlet Node,6,NODE 116,5 ZONE PVAV 1
 Return Air Path,3,5 ZONE PVAV 2 RETURN PATH,5 ZONE PVAV 2
   #Components on Return Air Path,1
   Return Air Path Component,1,AIRLOOPHVAC:ZONEMIXER,AIR LOOP HVAC ZONE MIXER 3,5 ZONE PVAV 2
     #Inlet Nodes on Return Air Path Component,5
     Return Air Path Component Nodes,1,AIRLOOPHVAC:ZONEMIXER,AIR LOOP HVAC ZONE MIXER 3,NODE 132,NODE 121,5 ZONE PVAV 2
     Return Air Path Component Nodes,2,AIRLOOPHVAC:ZONEMIXER,AIR LOOP HVAC ZONE MIXER 3,NODE 137,NODE 121,5 ZONE PVAV 2
     Return Air Path Component Nodes,3,AIRLOOPHVAC:ZONEMIXER,AIR LOOP HVAC ZONE MIXER 3,NODE 142,NODE 121,5 ZONE PVAV 2
     Return Air Path Component Nodes,4,AIRLOOPHVAC:ZONEMIXER,AIR LOOP HVAC ZONE MIXER 3,NODE 147,NODE 121,5 ZONE PVAV 2
     Return Air Path Component Nodes,5,AIRLOOPHVAC:ZONEMIXER,AIR LOOP HVAC ZONE MIXER 3,NODE 152,NODE 121,5 ZONE PVAV 2
! <#Nodes on Return Air Path>,<Number of Nodes>
! <Return Air Path Node>,<Node Type>,<Node Count>,<Node Name>,<AirLoopHVAC Name>
   #Nodes on Return Air Path,6
   Return Air Path Node,Outlet Node,1,NODE 121,5 ZONE PVAV 2
   Return Air Path Node,Inlet Node,2,NODE 132,5 ZONE PVAV 2
   Return Air Path Node,Inlet Node,3,NODE 137,5 ZONE PVAV 2
   Return Air Path Node,Inlet Node,4,NODE 142,5 ZONE PVAV 2
   Return Air Path Node,Inlet Node,5,NODE 147,5 ZONE PVAV 2
   Return Air Path Node,Inlet Node,6,NODE 152,5 ZONE PVAV 2
! ===============================================================
! #Outdoor Air Nodes,<Number of Outdoor Air Nodes>
 #Outdoor Air Nodes,3
! <Outdoor Air Node>,<NodeNumber>,<Node Name>
 Outdoor Air Node,104,NODE 55
 Outdoor Air Node,105,NODE 91
 Outdoor Air Node,106,NODE 127
! ===============================================================
! <#Component Sets>,<Number of Component Sets>
 #Component Sets,83
! <Component Set>,<Component Set Count>,<Parent Object Type>,<Parent Object Name>,<Component Type>,<Component Name>,<Inlet Node ID>,<Outlet Node ID>,<Description>
 Component Set,1,BRANCH,5 ZONE PVAV MAIN BRANCH,AIRLOOPHVAC:OUTDOORAIRSYSTEM,5 ZONE PVAV OA SYS,NODE 46,NODE 57,Air Nodes
 Component Set,2,BRANCH,5 ZONE PVAV MAIN BRANCH,COILSYSTEM:COOLING:DX,5 ZONE PVAV CLG COIL 487KBTU/HR 6.8EER COILSYSTEM,NODE 57,NODE 54,Air Nodes
 Component Set,3,BRANCH,5 ZONE PVAV MAIN BRANCH,COIL:HEATING:WATER,5 ZONE PVAV MAIN HTG COIL,NODE 54,NODE 51,Air Nodes
 Component Set,4,BRANCH,5 ZONE PVAV MAIN BRANCH,FAN:VARIABLEVOLUME,5 ZONE PVAV FAN,NODE 51,NODE 47,Air Nodes
 Component Set,5,BRANCH,5 ZONE PVAV 1 MAIN BRANCH,AIRLOOPHVAC:OUTDOORAIRSYSTEM,5 ZONE PVAV 1 OA SYS,NODE 82,NODE 93,Air Nodes
 Component Set,6,BRANCH,5 ZONE PVAV 1 MAIN BRANCH,COILSYSTEM:COOLING:DX,5 ZONE PVAV 1 CLG COIL 488KBTU/HR 6.8EER COILSYSTEM,NODE 93,NODE 90,Air Nodes
 Component Set,7,BRANCH,5 ZONE PVAV 1 MAIN BRANCH,COIL:HEATING:WATER,5 ZONE PVAV 1 MAIN HTG COIL,NODE 90,NODE 87,Air Nodes
 Component Set,8,BRANCH,5 ZONE PVAV 1 MAIN BRANCH,FAN:VARIABLEVOLUME,5 ZONE PVAV 1 FAN,NODE 87,NODE 83,Air Nodes
 Component Set,9,BRANCH,5 ZONE PVAV 2 MAIN BRANCH,AIRLOOPHVAC:OUTDOORAIRSYSTEM,5 ZONE PVAV 2 OA SYS,NODE 118,NODE 129,Air Nodes
 Component Set,10,BRANCH,5 ZONE PVAV 2 MAIN BRANCH,COILSYSTEM:COOLING:DX,5 ZONE PVAV 2 CLG COIL 517KBTU/HR 6.8EER COILSYSTEM,NODE 129,NODE 126,Air Nodes
 Component Set,11,BRANCH,5 ZONE PVAV 2 MAIN BRANCH,COIL:HEATING:WATER,5 ZONE PVAV 2 MAIN HTG COIL,NODE 126,NODE 123,Air Nodes
 Component Set,12,BRANCH,5 ZONE PVAV 2 MAIN BRANCH,FAN:VARIABLEVOLUME,5 ZONE PVAV 2 FAN,NODE 123,NODE 119,Air Nodes
 Component Set,13,BRANCH,HOT WATER LOOP SUPPLY INLET BRANCH,PUMP:VARIABLESPEED,HOT WATER LOOP PUMP,NODE 32,NODE 38,Water Nodes
 Component Set,14,BRANCH,HOT WATER LOOP SUPPLY BRANCH 1,BOILER:HOTWATER,HOT WATER LOOP BOILER 1115KBTU/HR 0.78 THERMAL EFF,NODE 34,NODE 39,Hot Water Nodes
 Component Set,15,BRANCH,HOT WATER LOOP SUPPLY BRANCH 2,PIPE:ADIABATIC,PIPE ADIABATIC 6,NODE 40,NODE 41,Pipe Nodes
 Component Set,16,BRANCH,HOT WATER LOOP SUPPLY OUTLET BRANCH,PIPE:ADIABATIC,PIPE ADIABATIC 8,NODE 43,NODE 33,Pipe Nodes
 Component Set,17,BRANCH,HOT WATER LOOP DEMAND INLET BRANCH,PIPE:ADIABATIC,PIPE ADIABATIC 9,NODE 35,NODE 44,Pipe Nodes
 Component Set,18,BRANCH,HOT WATER LOOP DEMAND BRANCH 1,PIPE:ADIABATIC,PIPE ADIABATIC 7,NODE 37,NODE 42,Pipe Nodes
 Component Set,19,BRANCH,HOT WATER LOOP DEMAND BRANCH 2,COIL:HEATING:WATER,5 ZONE PVAV MAIN HTG COIL,NODE 52,NODE 53,Water Nodes
 Component Set,20,BRANCH,HOT WATER LOOP DEMAND BRANCH 3,COIL:HEATING:WATER,ZONE SOUTH PERIMETER SPACE - STORY GROUND RHT COIL,NODE 58,NODE 59,Water Nodes
 Component Set,21,BRANCH,HOT WATER LOOP DEMAND BRANCH 4,COIL:HEATING:WATER,ZONE WEST PERIMETER SPACE - STORY GROUND RHT COIL,NODE 62,NODE 63,Water Nodes
 Component Set,22,BRANCH,HOT WATER LOOP DEMAND BRANCH 5,COIL:HEATING:WATER,ZONE NORTH PERIMETER SPACE - STORY GROUND RHT COIL,NODE 67,NODE 68,Water Nodes
 Component Set,23,BRANCH,HOT WATER LOOP DEMAND BRANCH 6,COIL:HEATING:WATER,ZONE CORE SPACE - STORY GROUND RHT COIL,NODE 72,NODE 73,Water Nodes
 Component Set,24,BRANCH,HOT WATER LOOP DEMAND BRANCH 7,COIL:HEATING:WATER,ZONE EAST PERIMETER SPACE - STORY GROUND RHT COIL,NODE 77,NODE 78,Water Nodes
 Component Set,25,BRANCH,HOT WATER LOOP DEMAND BRANCH 8,COIL:HEATING:WATER,5 ZONE PVAV 1 MAIN HTG COIL,NODE 88,NODE 89,Water Nodes
 Component Set,26,BRANCH,HOT WATER LOOP DEMAND BRANCH 9,COIL:HEATING:WATER,ZONE NORTH PERIMETER SPACE - STORY MID RHT COIL,NODE 94,NODE 95,Water Nodes
 Component Set,27,BRANCH,HOT WATER LOOP DEMAND BRANCH 10,COIL:HEATING:WATER,ZONE EAST PERIMETER SPACE - STORY MID RHT COIL,NODE 98,NODE 99,Water Nodes
 Component Set,28,BRANCH,HOT WATER LOOP DEMAND BRANCH 11,COIL:HEATING:WATER,ZONE CORE SPACE - STORY MID RHT COIL,NODE 103,NODE 104,Water Nodes
 Component Set,29,BRANCH,HOT WATER LOOP DEMAND BRANCH 12,COIL:HEATING:WATER,ZONE SOUTH PERIMETER SPACE - STORY MID RHT COIL,NODE 108,NODE 109,Water Nodes
 Component Set,30,BRANCH,HOT WATER LOOP DEMAND BRANCH 13,COIL:HEATING:WATER,ZONE WEST PERIMETER SPACE - STORY MID RHT COIL,NODE 113,NODE 114,Water Nodes
 Component Set,31,BRANCH,HOT WATER LOOP DEMAND BRANCH 14,COIL:HEATING:WATER,5 ZONE PVAV 2 MAIN HTG COIL,NODE 124,NODE 125,Water Nodes
 Component Set,32,BRANCH,HOT WATER LOOP DEMAND BRANCH 15,COIL:HEATING:WATER,ZONE NORTH PERIMETER SPACE - STORY TOP RHT COIL,NODE 130,NODE 131,Water Nodes
 Component Set,33,BRANCH,HOT WATER LOOP DEMAND BRANCH 16,COIL:HEATING:WATER,ZONE CORE SPACE - STORY TOP RHT COIL,NODE 134,NODE 135,Water Nodes
 Component Set,34,BRANCH,HOT WATER LOOP DEMAND BRANCH 17,COIL:HEATING:WATER,ZONE EAST PERIMETER SPACE - STORY TOP RHT COIL,NODE 139,NODE 140,Water Nodes
 Component Set,35,BRANCH,HOT WATER LOOP DEMAND BRANCH 18,COIL:HEATING:WATER,ZONE WEST PERIMETER SPACE - STORY TOP RHT COIL,NODE 144,NODE 145,Water Nodes
 Component Set,36,BRANCH,HOT WATER LOOP DEMAND BRANCH 19,COIL:HEATING:WATER,ZONE SOUTH PERIMETER SPACE - STORY TOP RHT COIL,NODE 149,NODE 150,Water Nodes
 Component Set,37,BRANCH,HOT WATER LOOP DEMAND BYPASS BRANCH,PIPE:ADIABATIC,HOT WATER LOOP DEMAND BYPASS PIPE,HOT WATER LOOP DEMAND BYPASS PIPE INLET NODE,HOT WATER LOOP DEMAND BYPASS PIPE OUTLET NODE,Pipe Nodes
 Component Set,38,BRANCH,HOT WATER LOOP DEMAND OUTLET BRANCH,PIPE:ADIABATIC,PIPE ADIABATIC 10,NODE 45,NODE 36,Pipe Nodes
 Component Set,39,BRANCH,OFFICE SHARED SERVICE WATER LOOP SUPPLY INLET BRANCH,PUMP:CONSTANTSPEED,SERVICE WATER LOOP PUMP,NODE 16,NODE 22,Water Nodes
 Component Set,40,BRANCH,OFFICE SHARED SERVICE WATER LOOP SUPPLY BRANCH 1,WATERHEATER:MIXED,40.0GAL GAS WATER HEATER - 31KBTU/HR 0.78 THERM EFF 0.78 THERM EFF,NODE 18,NODE 23,Use Side Water Nodes
 Component Set,41,BRANCH,OFFICE SHARED SERVICE WATER LOOP SUPPLY BRANCH 2,PIPE:ADIABATIC,PIPE ADIABATIC 1,NODE 24,NODE 25,Pipe Nodes
 Component Set,42,BRANCH,OFFICE SHARED SERVICE WATER LOOP SUPPLY OUTLET BRANCH,PIPE:ADIABATIC,PIPE ADIABATIC 3,NODE 27,NODE 17,Pipe Nodes
 Component Set,43,BRANCH,OFFICE SHARED SERVICE WATER LOOP DEMAND INLET BRANCH,PIPE:ADIABATIC,PIPE ADIABATIC 4,NODE 19,NODE 28,Pipe Nodes
 Component Set,44,BRANCH,OFFICE SHARED SERVICE WATER LOOP DEMAND BRANCH 1,PIPE:ADIABATIC,PIPE ADIABATIC 2,NODE 21,NODE 26,Pipe Nodes
 Component Set,45,BRANCH,OFFICE SHARED SERVICE WATER LOOP DEMAND BRANCH 2,WATERUSE:CONNECTIONS,OFFICE WHOLEBUILDING - MD OFFICE - CEC PRE-1978 WUC,NODE 30,NODE 31,DHW Nodes
 Component Set,46,BRANCH,OFFICE SHARED SERVICE WATER LOOP DEMAND BYPASS BRANCH,PIPE:ADIABATIC,OFFICE SHARED SERVICE WATER LOOP DEMAND BYPASS PIPE,OFFICE SHARED SERVICE WATER LOOP DEMAND BYPASS PIPE INLET NODE,OFFICE SHARED SERVICE WATER LOOP DEMAND BYPASS PIPE OUTLET NODE,Pipe Nodes
 Component Set,47,BRANCH,OFFICE SHARED SERVICE WATER LOOP DEMAND OUTLET BRANCH,PIPE:ADIABATIC,PIPE ADIABATIC 5,NODE 29,NODE 20,Pipe Nodes
 Component Set,48,ZONEHVAC:AIRDISTRIBUTIONUNIT,ADU ZONE CORE SPACE - STORY GROUND VAV TERM,AIRTERMINAL:SINGLEDUCT:VAV:REHEAT,ZONE CORE SPACE - STORY GROUND VAV TERM,NODE 76,NODE 74,Air Nodes
 Component Set,49,ZONEHVAC:AIRDISTRIBUTIONUNIT,ADU ZONE CORE SPACE - STORY MID VAV TERM,AIRTERMINAL:SINGLEDUCT:VAV:REHEAT,ZONE CORE SPACE - STORY MID VAV TERM,NODE 107,NODE 105,Air Nodes
 Component Set,50,ZONEHVAC:AIRDISTRIBUTIONUNIT,ADU ZONE CORE SPACE - STORY TOP VAV TERM,AIRTERMINAL:SINGLEDUCT:VAV:REHEAT,ZONE CORE SPACE - STORY TOP VAV TERM,NODE 138,NODE 136,Air Nodes
 Component Set,51,ZONEHVAC:AIRDISTRIBUTIONUNIT,ADU ZONE EAST PERIMETER SPACE - STORY GROUND VAV TERM,AIRTERMINAL:SINGLEDUCT:VAV:REHEAT,ZONE EAST PERIMETER SPACE - STORY GROUND VAV TERM,NODE 81,NODE 79,Air Nodes
 Component Set,52,ZONEHVAC:AIRDISTRIBUTIONUNIT,ADU ZONE EAST PERIMETER SPACE - STORY MID VAV TERM,AIRTERMINAL:SINGLEDUCT:VAV:REHEAT,ZONE EAST PERIMETER SPACE - STORY MID VAV TERM,NODE 102,NODE 100,Air Nodes
 Component Set,53,ZONEHVAC:AIRDISTRIBUTIONUNIT,ADU ZONE EAST PERIMETER SPACE - STORY TOP VAV TERM,AIRTERMINAL:SINGLEDUCT:VAV:REHEAT,ZONE EAST PERIMETER SPACE - STORY TOP VAV TERM,NODE 143,NODE 141,Air Nodes
 Component Set,54,ZONEHVAC:AIRDISTRIBUTIONUNIT,ADU ZONE NORTH PERIMETER SPACE - STORY GROUND VAV TERM,AIRTERMINAL:SINGLEDUCT:VAV:REHEAT,ZONE NORTH PERIMETER SPACE - STORY GROUND VAV TERM,NODE 71,NODE 69,Air Nodes
 Component Set,55,ZONEHVAC:AIRDISTRIBUTIONUNIT,ADU ZONE NORTH PERIMETER SPACE - STORY MID VAV TERM,AIRTERMINAL:SINGLEDUCT:VAV:REHEAT,ZONE NORTH PERIMETER SPACE - STORY MID VAV TERM,NODE 97,NODE 86,Air Nodes
 Component Set,56,ZONEHVAC:AIRDISTRIBUTIONUNIT,ADU ZONE NORTH PERIMETER SPACE - STORY TOP VAV TERM,AIRTERMINAL:SINGLEDUCT:VAV:REHEAT,ZONE NORTH PERIMETER SPACE - STORY TOP VAV TERM,NODE 133,NODE 122,Air Nodes
 Component Set,57,ZONEHVAC:AIRDISTRIBUTIONUNIT,ADU ZONE SOUTH PERIMETER SPACE - STORY GROUND VAV TERM,AIRTERMINAL:SINGLEDUCT:VAV:REHEAT,ZONE SOUTH PERIMETER SPACE - STORY GROUND VAV TERM,NODE 61,NODE 50,Air Nodes
 Component Set,58,ZONEHVAC:AIRDISTRIBUTIONUNIT,ADU ZONE SOUTH PERIMETER SPACE - STORY MID VAV TERM,AIRTERMINAL:SINGLEDUCT:VAV:REHEAT,ZONE SOUTH PERIMETER SPACE - STORY MID VAV TERM,NODE 112,NODE 110,Air Nodes
 Component Set,59,ZONEHVAC:AIRDISTRIBUTIONUNIT,ADU ZONE SOUTH PERIMETER SPACE - STORY TOP VAV TERM,AIRTERMINAL:SINGLEDUCT:VAV:REHEAT,ZONE SOUTH PERIMETER SPACE - STORY TOP VAV TERM,NODE 153,NODE 151,Air Nodes
 Component Set,60,ZONEHVAC:AIRDISTRIBUTIONUNIT,ADU ZONE WEST PERIMETER SPACE - STORY GROUND VAV TERM,AIRTERMINAL:SINGLEDUCT:VAV:REHEAT,ZONE WEST PERIMETER SPACE - STORY GROUND VAV TERM,NODE 66,NODE 64,Air Nodes
 Component Set,61,ZONEHVAC:AIRDISTRIBUTIONUNIT,ADU ZONE WEST PERIMETER SPACE - STORY MID VAV TERM,AIRTERMINAL:SINGLEDUCT:VAV:REHEAT,ZONE WEST PERIMETER SPACE - STORY MID VAV TERM,NODE 117,NODE 115,Air Nodes
 Component Set,62,ZONEHVAC:AIRDISTRIBUTIONUNIT,ADU ZONE WEST PERIMETER SPACE - STORY TOP VAV TERM,AIRTERMINAL:SINGLEDUCT:VAV:REHEAT,ZONE WEST PERIMETER SPACE - STORY TOP VAV TERM,NODE 148,NODE 146,Air Nodes
 Component Set,63,AIRTERMINAL:SINGLEDUCT:VAV:REHEAT,ZONE CORE SPACE - STORY GROUND VAV TERM,COIL:HEATING:WATER,ZONE CORE SPACE - STORY GROUND RHT COIL,ZONE CORE SPACE - STORY GROUND VAV TERM DAMPER OUTLET,NODE 74,Air Nodes
 Component Set,64,AIRTERMINAL:SINGLEDUCT:VAV:REHEAT,ZONE CORE SPACE - STORY MID VAV TERM,COIL:HEATING:WATER,ZONE CORE SPACE - STORY MID RHT COIL,ZONE CORE SPACE - STORY MID VAV TERM DAMPER OUTLET,NODE 105,Air Nodes
 Component Set,65,AIRTERMINAL:SINGLEDUCT:VAV:REHEAT,ZONE CORE SPACE - STORY TOP VAV TERM,COIL:HEATING:WATER,ZONE CORE SPACE - STORY TOP RHT COIL,ZONE CORE SPACE - STORY TOP VAV TERM DAMPER OUTLET,NODE 136,Air Nodes
 Component Set,66,AIRTERMINAL:SINGLEDUCT:VAV:REHEAT,ZONE EAST PERIMETER SPACE - STORY GROUND VAV TERM,COIL:HEATING:WATER,ZONE EAST PERIMETER SPACE - STORY GROUND RHT COIL,ZONE EAST PERIMETER SPACE - STORY GROUND VAV TERM DAMPER OUTLET,NODE 79,Air Nodes
 Component Set,67,AIRTERMINAL:SINGLEDUCT:VAV:REHEAT,ZONE EAST PERIMETER SPACE - STORY MID VAV TERM,COIL:HEATING:WATER,ZONE EAST PERIMETER SPACE - STORY MID RHT COIL,ZONE EAST PERIMETER SPACE - STORY MID VAV TERM DAMPER OUTLET,NODE 100,Air Nodes
 Component Set,68,AIRTERMINAL:SINGLEDUCT:VAV:REHEAT,ZONE EAST PERIMETER SPACE - STORY TOP VAV TERM,COIL:HEATING:WATER,ZONE EAST PERIMETER SPACE - STORY TOP RHT COIL,ZONE EAST PERIMETER SPACE - STORY TOP VAV TERM DAMPER OUTLET,NODE 141,Air Nodes
 Component Set,69,AIRTERMINAL:SINGLEDUCT:VAV:REHEAT,ZONE NORTH PERIMETER SPACE - STORY GROUND VAV TERM,COIL:HEATING:WATER,ZONE NORTH PERIMETER SPACE - STORY GROUND RHT COIL,ZONE NORTH PERIMETER SPACE - STORY GROUND VAV TERM DAMPER OUTLET,NODE 69,Air Nodes
 Component Set,70,AIRTERMINAL:SINGLEDUCT:VAV:REHEAT,ZONE NORTH PERIMETER SPACE - STORY MID VAV TERM,COIL:HEATING:WATER,ZONE NORTH PERIMETER SPACE - STORY MID RHT COIL,ZONE NORTH PERIMETER SPACE - STORY MID VAV TERM DAMPER OUTLET,NODE 86,Air Nodes
 Component Set,71,AIRTERMINAL:SINGLEDUCT:VAV:REHEAT,ZONE NORTH PERIMETER SPACE - STORY TOP VAV TERM,COIL:HEATING:WATER,ZONE NORTH PERIMETER SPACE - STORY TOP RHT COIL,ZONE NORTH PERIMETER SPACE - STORY TOP VAV TERM DAMPER OUTLET,NODE 122,Air Nodes
 Component Set,72,AIRTERMINAL:SINGLEDUCT:VAV:REHEAT,ZONE SOUTH PERIMETER SPACE - STORY GROUND VAV TERM,COIL:HEATING:WATER,ZONE SOUTH PERIMETER SPACE - STORY GROUND RHT COIL,ZONE SOUTH PERIMETER SPACE - STORY GROUND VAV TERM DAMPER OUTLET,NODE 50,Air Nodes
 Component Set,73,AIRTERMINAL:SINGLEDUCT:VAV:REHEAT,ZONE SOUTH PERIMETER SPACE - STORY MID VAV TERM,COIL:HEATING:WATER,ZONE SOUTH PERIMETER SPACE - STORY MID RHT COIL,ZONE SOUTH PERIMETER SPACE - STORY MID VAV TERM DAMPER OUTLET,NODE 110,Air Nodes
 Component Set,74,AIRTERMINAL:SINGLEDUCT:VAV:REHEAT,ZONE SOUTH PERIMETER SPACE - STORY TOP VAV TERM,COIL:HEATING:WATER,ZONE SOUTH PERIMETER SPACE - STORY TOP RHT COIL,ZONE SOUTH PERIMETER SPACE - STORY TOP VAV TERM DAMPER OUTLET,NODE 151,Air Nodes
 Component Set,75,AIRTERMINAL:SINGLEDUCT:VAV:REHEAT,ZONE WEST PERIMETER SPACE - STORY GROUND VAV TERM,COIL:HEATING:WATER,ZONE WEST PERIMETER SPACE - STORY GROUND RHT COIL,ZONE WEST PERIMETER SPACE - STORY GROUND VAV TERM DAMPER OUTLET,NODE 64,Air Nodes
 Component Set,76,AIRTERMINAL:SINGLEDUCT:VAV:REHEAT,ZONE WEST PERIMETER SPACE - STORY MID VAV TERM,COIL:HEATING:WATER,ZONE WEST PERIMETER SPACE - STORY MID RHT COIL,ZONE WEST PERIMETER SPACE - STORY MID VAV TERM DAMPER OUTLET,NODE 115,Air Nodes
 Component Set,77,AIRTERMINAL:SINGLEDUCT:VAV:REHEAT,ZONE WEST PERIMETER SPACE - STORY TOP VAV TERM,COIL:HEATING:WATER,ZONE WEST PERIMETER SPACE - STORY TOP RHT COIL,ZONE WEST PERIMETER SPACE - STORY TOP VAV TERM DAMPER OUTLET,NODE 146,Air Nodes
 Component Set,78,AIRLOOPHVAC:OUTDOORAIRSYSTEM,5 ZONE PVAV OA SYS,OUTDOORAIR:MIXER,5 ZONE PVAV OA SYS OUTDOOR AIR MIXER,NODE 55,NODE 57,Air Nodes
 Component Set,79,AIRLOOPHVAC:OUTDOORAIRSYSTEM,5 ZONE PVAV 1 OA SYS,OUTDOORAIR:MIXER,5 ZONE PVAV 1 OA SYS OUTDOOR AIR MIXER,NODE 91,NODE 93,Air Nodes
 Component Set,80,AIRLOOPHVAC:OUTDOORAIRSYSTEM,5 ZONE PVAV 2 OA SYS,OUTDOORAIR:MIXER,5 ZONE PVAV 2 OA SYS OUTDOOR AIR MIXER,NODE 127,NODE 129,Air Nodes
 Component Set,81,COILSYSTEM:COOLING:DX,5 ZONE PVAV CLG COIL 487KBTU/HR 6.8EER COILSYSTEM,COIL:COOLING:DX:TWOSPEED,5 ZONE PVAV CLG COIL 487KBTU/HR 6.8EER,NODE 57,NODE 54,Air Nodes
 Component Set,82,COILSYSTEM:COOLING:DX,5 ZONE PVAV 1 CLG COIL 488KBTU/HR 6.8EER COILSYSTEM,COIL:COOLING:DX:TWOSPEED,5 ZONE PVAV 1 CLG COIL 488KBTU/HR 6.8EER,NODE 93,NODE 90,Air Nodes
 Component Set,83,COILSYSTEM:COOLING:DX,5 ZONE PVAV 2 CLG COIL 517KBTU/HR 6.8EER COILSYSTEM,COIL:COOLING:DX:TWOSPEED,5 ZONE PVAV 2 CLG COIL 517KBTU/HR 6.8EER,NODE 129,NODE 126,Air Nodes
! ===============================================================
! <# Plant Loops>,<Number of Plant Loops>
 #Plant Loops,2
! <Plant Loop>,<Plant Loop Name>,<Loop Type>,<Inlet Node Name>,<Outlet Node Name>,<Branch List>,<Connector List>
! <Plant Loop Connector>,<Connector Type>,<Connector Name>,<Loop Name>,<Loop Type>,<Number of Inlets/Outlets>
! <Plant Loop Connector Branches>,<Connector Node Count>,<Connector Type>,<Connector Name>,<Inlet Branch>,<Outlet Branch>,<Loop Name>,<Loop Type>
! <Plant Loop Connector Nodes>,<Connector Node Count>,<Connector Type>,<Connector Name>,<Inlet Node>,<Outlet Node>,<Loop Name>,<Loop Type>
! <Plant Loop Supply Connection>,<Plant Loop Name>,<Supply Side Outlet Node Name>,<Demand Side Inlet Node Name>
! <Plant Loop Return Connection>,<Plant Loop Name>,<Demand Side Outlet Node Name>,<Supply Side Inlet Node Name>
 Plant Loop,HOT WATER LOOP,Demand,NODE 35,NODE 36,HOT WATER LOOP DEMAND BRANCHES,HOT WATER LOOP DEMAND CONNECTOR LIST
   Plant Loop Connector,Splitter,HOT WATER LOOP DEMAND SPLITTER,HOT WATER LOOP,Demand,20
     Plant Loop Connector Branches,1,Splitter,HOT WATER LOOP DEMAND SPLITTER,HOT WATER LOOP DEMAND INLET BRANCH,HOT WATER LOOP DEMAND BRANCH 1,HOT WATER LOOP,Demand
     Plant Loop Connector Nodes,   1,Splitter,HOT WATER LOOP DEMAND SPLITTER,NODE 44,NODE 37,HOT WATER LOOP,Demand
     Plant Loop Connector Branches,2,Splitter,HOT WATER LOOP DEMAND SPLITTER,HOT WATER LOOP DEMAND INLET BRANCH,HOT WATER LOOP DEMAND BRANCH 2,HOT WATER LOOP,Demand
     Plant Loop Connector Nodes,   2,Splitter,HOT WATER LOOP DEMAND SPLITTER,NODE 44,NODE 52,HOT WATER LOOP,Demand
     Plant Loop Connector Branches,3,Splitter,HOT WATER LOOP DEMAND SPLITTER,HOT WATER LOOP DEMAND INLET BRANCH,HOT WATER LOOP DEMAND BRANCH 3,HOT WATER LOOP,Demand
     Plant Loop Connector Nodes,   3,Splitter,HOT WATER LOOP DEMAND SPLITTER,NODE 44,NODE 58,HOT WATER LOOP,Demand
     Plant Loop Connector Branches,4,Splitter,HOT WATER LOOP DEMAND SPLITTER,HOT WATER LOOP DEMAND INLET BRANCH,HOT WATER LOOP DEMAND BRANCH 4,HOT WATER LOOP,Demand
     Plant Loop Connector Nodes,   4,Splitter,HOT WATER LOOP DEMAND SPLITTER,NODE 44,NODE 62,HOT WATER LOOP,Demand
     Plant Loop Connector Branches,5,Splitter,HOT WATER LOOP DEMAND SPLITTER,HOT WATER LOOP DEMAND INLET BRANCH,HOT WATER LOOP DEMAND BRANCH 5,HOT WATER LOOP,Demand
     Plant Loop Connector Nodes,   5,Splitter,HOT WATER LOOP DEMAND SPLITTER,NODE 44,NODE 67,HOT WATER LOOP,Demand
     Plant Loop Connector Branches,6,Splitter,HOT WATER LOOP DEMAND SPLITTER,HOT WATER LOOP DEMAND INLET BRANCH,HOT WATER LOOP DEMAND BRANCH 6,HOT WATER LOOP,Demand
     Plant Loop Connector Nodes,   6,Splitter,HOT WATER LOOP DEMAND SPLITTER,NODE 44,NODE 72,HOT WATER LOOP,Demand
     Plant Loop Connector Branches,7,Splitter,HOT WATER LOOP DEMAND SPLITTER,HOT WATER LOOP DEMAND INLET BRANCH,HOT WATER LOOP DEMAND BRANCH 7,HOT WATER LOOP,Demand
     Plant Loop Connector Nodes,   7,Splitter,HOT WATER LOOP DEMAND SPLITTER,NODE 44,NODE 77,HOT WATER LOOP,Demand
     Plant Loop Connector Branches,8,Splitter,HOT WATER LOOP DEMAND SPLITTER,HOT WATER LOOP DEMAND INLET BRANCH,HOT WATER LOOP DEMAND BRANCH 8,HOT WATER LOOP,Demand
     Plant Loop Connector Nodes,   8,Splitter,HOT WATER LOOP DEMAND SPLITTER,NODE 44,NODE 88,HOT WATER LOOP,Demand
     Plant Loop Connector Branches,9,Splitter,HOT WATER LOOP DEMAND SPLITTER,HOT WATER LOOP DEMAND INLET BRANCH,HOT WATER LOOP DEMAND BRANCH 9,HOT WATER LOOP,Demand
     Plant Loop Connector Nodes,   9,Splitter,HOT WATER LOOP DEMAND SPLITTER,NODE 44,NODE 94,HOT WATER LOOP,Demand
     Plant Loop Connector Branches,10,Splitter,HOT WATER LOOP DEMAND SPLITTER,HOT WATER LOOP DEMAND INLET BRANCH,HOT WATER LOOP DEMAND BRANCH 10,HOT WATER LOOP,Demand
     Plant Loop Connector Nodes,   10,Splitter,HOT WATER LOOP DEMAND SPLITTER,NODE 44,NODE 98,HOT WATER LOOP,Demand
     Plant Loop Connector Branches,11,Splitter,HOT WATER LOOP DEMAND SPLITTER,HOT WATER LOOP DEMAND INLET BRANCH,HOT WATER LOOP DEMAND BRANCH 11,HOT WATER LOOP,Demand
     Plant Loop Connector Nodes,   11,Splitter,HOT WATER LOOP DEMAND SPLITTER,NODE 44,NODE 103,HOT WATER LOOP,Demand
     Plant Loop Connector Branches,12,Splitter,HOT WATER LOOP DEMAND SPLITTER,HOT WATER LOOP DEMAND INLET BRANCH,HOT WATER LOOP DEMAND BRANCH 12,HOT WATER LOOP,Demand
     Plant Loop Connector Nodes,   12,Splitter,HOT WATER LOOP DEMAND SPLITTER,NODE 44,NODE 108,HOT WATER LOOP,Demand
     Plant Loop Connector Branches,13,Splitter,HOT WATER LOOP DEMAND SPLITTER,HOT WATER LOOP DEMAND INLET BRANCH,HOT WATER LOOP DEMAND BRANCH 13,HOT WATER LOOP,Demand
     Plant Loop Connector Nodes,   13,Splitter,HOT WATER LOOP DEMAND SPLITTER,NODE 44,NODE 113,HOT WATER LOOP,Demand
     Plant Loop Connector Branches,14,Splitter,HOT WATER LOOP DEMAND SPLITTER,HOT WATER LOOP DEMAND INLET BRANCH,HOT WATER LOOP DEMAND BRANCH 14,HOT WATER LOOP,Demand
     Plant Loop Connector Nodes,   14,Splitter,HOT WATER LOOP DEMAND SPLITTER,NODE 44,NODE 124,HOT WATER LOOP,Demand
     Plant Loop Connector Branches,15,Splitter,HOT WATER LOOP DEMAND SPLITTER,HOT WATER LOOP DEMAND INLET BRANCH,HOT WATER LOOP DEMAND BRANCH 15,HOT WATER LOOP,Demand
     Plant Loop Connector Nodes,   15,Splitter,HOT WATER LOOP DEMAND SPLITTER,NODE 44,NODE 130,HOT WATER LOOP,Demand
     Plant Loop Connector Branches,16,Splitter,HOT WATER LOOP DEMAND SPLITTER,HOT WATER LOOP DEMAND INLET BRANCH,HOT WATER LOOP DEMAND BRANCH 16,HOT WATER LOOP,Demand
     Plant Loop Connector Nodes,   16,Splitter,HOT WATER LOOP DEMAND SPLITTER,NODE 44,NODE 134,HOT WATER LOOP,Demand
     Plant Loop Connector Branches,17,Splitter,HOT WATER LOOP DEMAND SPLITTER,HOT WATER LOOP DEMAND INLET BRANCH,HOT WATER LOOP DEMAND BRANCH 17,HOT WATER LOOP,Demand
     Plant Loop Connector Nodes,   17,Splitter,HOT WATER LOOP DEMAND SPLITTER,NODE 44,NODE 139,HOT WATER LOOP,Demand
     Plant Loop Connector Branches,18,Splitter,HOT WATER LOOP DEMAND SPLITTER,HOT WATER LOOP DEMAND INLET BRANCH,HOT WATER LOOP DEMAND BRANCH 18,HOT WATER LOOP,Demand
     Plant Loop Connector Nodes,   18,Splitter,HOT WATER LOOP DEMAND SPLITTER,NODE 44,NODE 144,HOT WATER LOOP,Demand
     Plant Loop Connector Branches,19,Splitter,HOT WATER LOOP DEMAND SPLITTER,HOT WATER LOOP DEMAND INLET BRANCH,HOT WATER LOOP DEMAND BRANCH 19,HOT WATER LOOP,Demand
     Plant Loop Connector Nodes,   19,Splitter,HOT WATER LOOP DEMAND SPLITTER,NODE 44,NODE 149,HOT WATER LOOP,Demand
     Plant Loop Connector Branches,20,Splitter,HOT WATER LOOP DEMAND SPLITTER,HOT WATER LOOP DEMAND INLET BRANCH,HOT WATER LOOP DEMAND BYPASS BRANCH,HOT WATER LOOP,Demand
     Plant Loop Connector Nodes,   20,Splitter,HOT WATER LOOP DEMAND SPLITTER,NODE 44,HOT WATER LOOP DEMAND BYPASS PIPE INLET NODE,HOT WATER LOOP,Demand
   Plant Loop Connector,Mixer,HOT WATER LOOP DEMAND MIXER,HOT WATER LOOP,Demand,20
     Plant Loop Connector Branches,1,Mixer,HOT WATER LOOP DEMAND MIXER,HOT WATER LOOP DEMAND BRANCH 1,HOT WATER LOOP DEMAND OUTLET BRANCH,HOT WATER LOOP,Demand
     Plant Loop Connector Nodes,   1,Mixer,HOT WATER LOOP DEMAND MIXER,NODE 42,NODE 45,HOT WATER LOOP,Demand
     Plant Loop Connector Branches,2,Mixer,HOT WATER LOOP DEMAND MIXER,HOT WATER LOOP DEMAND BRANCH 2,HOT WATER LOOP DEMAND OUTLET BRANCH,HOT WATER LOOP,Demand
     Plant Loop Connector Nodes,   2,Mixer,HOT WATER LOOP DEMAND MIXER,NODE 53,NODE 45,HOT WATER LOOP,Demand
     Plant Loop Connector Branches,3,Mixer,HOT WATER LOOP DEMAND MIXER,HOT WATER LOOP DEMAND BRANCH 3,HOT WATER LOOP DEMAND OUTLET BRANCH,HOT WATER LOOP,Demand
     Plant Loop Connector Nodes,   3,Mixer,HOT WATER LOOP DEMAND MIXER,NODE 59,NODE 45,HOT WATER LOOP,Demand
     Plant Loop Connector Branches,4,Mixer,HOT WATER LOOP DEMAND MIXER,HOT WATER LOOP DEMAND BRANCH 4,HOT WATER LOOP DEMAND OUTLET BRANCH,HOT WATER LOOP,Demand
     Plant Loop Connector Nodes,   4,Mixer,HOT WATER LOOP DEMAND MIXER,NODE 63,NODE 45,HOT WATER LOOP,Demand
     Plant Loop Connector Branches,5,Mixer,HOT WATER LOOP DEMAND MIXER,HOT WATER LOOP DEMAND BRANCH 5,HOT WATER LOOP DEMAND OUTLET BRANCH,HOT WATER LOOP,Demand
     Plant Loop Connector Nodes,   5,Mixer,HOT WATER LOOP DEMAND MIXER,NODE 68,NODE 45,HOT WATER LOOP,Demand
     Plant Loop Connector Branches,6,Mixer,HOT WATER LOOP DEMAND MIXER,HOT WATER LOOP DEMAND BRANCH 6,HOT WATER LOOP DEMAND OUTLET BRANCH,HOT WATER LOOP,Demand
     Plant Loop Connector Nodes,   6,Mixer,HOT WATER LOOP DEMAND MIXER,NODE 73,NODE 45,HOT WATER LOOP,Demand
     Plant Loop Connector Branches,7,Mixer,HOT WATER LOOP DEMAND MIXER,HOT WATER LOOP DEMAND BRANCH 7,HOT WATER LOOP DEMAND OUTLET BRANCH,HOT WATER LOOP,Demand
     Plant Loop Connector Nodes,   7,Mixer,HOT WATER LOOP DEMAND MIXER,NODE 78,NODE 45,HOT WATER LOOP,Demand
     Plant Loop Connector Branches,8,Mixer,HOT WATER LOOP DEMAND MIXER,HOT WATER LOOP DEMAND BRANCH 8,HOT WATER LOOP DEMAND OUTLET BRANCH,HOT WATER LOOP,Demand
     Plant Loop Connector Nodes,   8,Mixer,HOT WATER LOOP DEMAND MIXER,NODE 89,NODE 45,HOT WATER LOOP,Demand
     Plant Loop Connector Branches,9,Mixer,HOT WATER LOOP DEMAND MIXER,HOT WATER LOOP DEMAND BRANCH 9,HOT WATER LOOP DEMAND OUTLET BRANCH,HOT WATER LOOP,Demand
     Plant Loop Connector Nodes,   9,Mixer,HOT WATER LOOP DEMAND MIXER,NODE 95,NODE 45,HOT WATER LOOP,Demand
     Plant Loop Connector Branches,10,Mixer,HOT WATER LOOP DEMAND MIXER,HOT WATER LOOP DEMAND BRANCH 10,HOT WATER LOOP DEMAND OUTLET BRANCH,HOT WATER LOOP,Demand
     Plant Loop Connector Nodes,   10,Mixer,HOT WATER LOOP DEMAND MIXER,NODE 99,NODE 45,HOT WATER LOOP,Demand
     Plant Loop Connector Branches,11,Mixer,HOT WATER LOOP DEMAND MIXER,HOT WATER LOOP DEMAND BRANCH 11,HOT WATER LOOP DEMAND OUTLET BRANCH,HOT WATER LOOP,Demand
     Plant Loop Connector Nodes,   11,Mixer,HOT WATER LOOP DEMAND MIXER,NODE 104,NODE 45,HOT WATER LOOP,Demand
     Plant Loop Connector Branches,12,Mixer,HOT WATER LOOP DEMAND MIXER,HOT WATER LOOP DEMAND BRANCH 12,HOT WATER LOOP DEMAND OUTLET BRANCH,HOT WATER LOOP,Demand
     Plant Loop Connector Nodes,   12,Mixer,HOT WATER LOOP DEMAND MIXER,NODE 109,NODE 45,HOT WATER LOOP,Demand
     Plant Loop Connector Branches,13,Mixer,HOT WATER LOOP DEMAND MIXER,HOT WATER LOOP DEMAND BRANCH 13,HOT WATER LOOP DEMAND OUTLET BRANCH,HOT WATER LOOP,Demand
     Plant Loop Connector Nodes,   13,Mixer,HOT WATER LOOP DEMAND MIXER,NODE 114,NODE 45,HOT WATER LOOP,Demand
     Plant Loop Connector Branches,14,Mixer,HOT WATER LOOP DEMAND MIXER,HOT WATER LOOP DEMAND BRANCH 14,HOT WATER LOOP DEMAND OUTLET BRANCH,HOT WATER LOOP,Demand
     Plant Loop Connector Nodes,   14,Mixer,HOT WATER LOOP DEMAND MIXER,NODE 125,NODE 45,HOT WATER LOOP,Demand
     Plant Loop Connector Branches,15,Mixer,HOT WATER LOOP DEMAND MIXER,HOT WATER LOOP DEMAND BRANCH 15,HOT WATER LOOP DEMAND OUTLET BRANCH,HOT WATER LOOP,Demand
     Plant Loop Connector Nodes,   15,Mixer,HOT WATER LOOP DEMAND MIXER,NODE 131,NODE 45,HOT WATER LOOP,Demand
     Plant Loop Connector Branches,16,Mixer,HOT WATER LOOP DEMAND MIXER,HOT WATER LOOP DEMAND BRANCH 16,HOT WATER LOOP DEMAND OUTLET BRANCH,HOT WATER LOOP,Demand
     Plant Loop Connector Nodes,   16,Mixer,HOT WATER LOOP DEMAND MIXER,NODE 135,NODE 45,HOT WATER LOOP,Demand
     Plant Loop Connector Branches,17,Mixer,HOT WATER LOOP DEMAND MIXER,HOT WATER LOOP DEMAND BRANCH 17,HOT WATER LOOP DEMAND OUTLET BRANCH,HOT WATER LOOP,Demand
     Plant Loop Connector Nodes,   17,Mixer,HOT WATER LOOP DEMAND MIXER,NODE 140,NODE 45,HOT WATER LOOP,Demand
     Plant Loop Connector Branches,18,Mixer,HOT WATER LOOP DEMAND MIXER,HOT WATER LOOP DEMAND BRANCH 18,HOT WATER LOOP DEMAND OUTLET BRANCH,HOT WATER LOOP,Demand
     Plant Loop Connector Nodes,   18,Mixer,HOT WATER LOOP DEMAND MIXER,NODE 145,NODE 45,HOT WATER LOOP,Demand
     Plant Loop Connector Branches,19,Mixer,HOT WATER LOOP DEMAND MIXER,HOT WATER LOOP DEMAND BRANCH 19,HOT WATER LOOP DEMAND OUTLET BRANCH,HOT WATER LOOP,Demand
     Plant Loop Connector Nodes,   19,Mixer,HOT WATER LOOP DEMAND MIXER,NODE 150,NODE 45,HOT WATER LOOP,Demand
     Plant Loop Connector Branches,20,Mixer,HOT WATER LOOP DEMAND MIXER,HOT WATER LOOP DEMAND BYPASS BRANCH,HOT WATER LOOP DEMAND OUTLET BRANCH,HOT WATER LOOP,Demand
     Plant Loop Connector Nodes,   20,Mixer,HOT WATER LOOP DEMAND MIXER,HOT WATER LOOP DEMAND BYPASS PIPE OUTLET NODE,NODE 45,HOT WATER LOOP,Demand
 Plant Loop,HOT WATER LOOP,Supply,NODE 32,NODE 33,HOT WATER LOOP SUPPLY BRANCHES,HOT WATER LOOP SUPPLY CONNECTOR LIST
   Plant Loop Connector,Splitter,HOT WATER LOOP SUPPLY SPLITTER,HOT WATER LOOP,Supply,2
     Plant Loop Connector Branches,1,Splitter,HOT WATER LOOP SUPPLY SPLITTER,HOT WATER LOOP SUPPLY INLET BRANCH,HOT WATER LOOP SUPPLY BRANCH 1,HOT WATER LOOP,Supply
     Plant Loop Connector Nodes,   1,Splitter,HOT WATER LOOP SUPPLY SPLITTER,NODE 38,NODE 34,HOT WATER LOOP,Supply
     Plant Loop Connector Branches,2,Splitter,HOT WATER LOOP SUPPLY SPLITTER,HOT WATER LOOP SUPPLY INLET BRANCH,HOT WATER LOOP SUPPLY BRANCH 2,HOT WATER LOOP,Supply
     Plant Loop Connector Nodes,   2,Splitter,HOT WATER LOOP SUPPLY SPLITTER,NODE 38,NODE 40,HOT WATER LOOP,Supply
   Plant Loop Connector,Mixer,HOT WATER LOOP SUPPLY MIXER,HOT WATER LOOP,Supply,2
     Plant Loop Connector Branches,1,Mixer,HOT WATER LOOP SUPPLY MIXER,HOT WATER LOOP SUPPLY BRANCH 1,HOT WATER LOOP SUPPLY OUTLET BRANCH,HOT WATER LOOP,Supply
     Plant Loop Connector Nodes,   1,Mixer,HOT WATER LOOP SUPPLY MIXER,NODE 39,NODE 43,HOT WATER LOOP,Supply
     Plant Loop Connector Branches,2,Mixer,HOT WATER LOOP SUPPLY MIXER,HOT WATER LOOP SUPPLY BRANCH 2,HOT WATER LOOP SUPPLY OUTLET BRANCH,HOT WATER LOOP,Supply
     Plant Loop Connector Nodes,   2,Mixer,HOT WATER LOOP SUPPLY MIXER,NODE 41,NODE 43,HOT WATER LOOP,Supply
 Plant Loop Supply Connection,HOT WATER LOOP,NODE 33,NODE 35
 Plant Loop Return Connection,HOT WATER LOOP,NODE 36,NODE 32
 Plant Loop,OFFICE SHARED SERVICE WATER LOOP,Demand,NODE 19,NODE 20,OFFICE SHARED SERVICE WATER LOOP DEMAND BRANCHES,OFFICE SHARED SERVICE WATER LOOP DEMAND CONNECTOR LIST
   Plant Loop Connector,Splitter,OFFICE SHARED SERVICE WATER LOOP DEMAND SPLITTER,OFFICE SHARED SERVICE WATER LOOP,Demand,3
     Plant Loop Connector Branches,1,Splitter,OFFICE SHARED SERVICE WATER LOOP DEMAND SPLITTER,OFFICE SHARED SERVICE WATER LOOP DEMAND INLET BRANCH,OFFICE SHARED SERVICE WATER LOOP DEMAND BRANCH 1,OFFICE SHARED SERVICE WATER LOOP,Demand
     Plant Loop Connector Nodes,   1,Splitter,OFFICE SHARED SERVICE WATER LOOP DEMAND SPLITTER,NODE 28,NODE 21,OFFICE SHARED SERVICE WATER LOOP,Demand
     Plant Loop Connector Branches,2,Splitter,OFFICE SHARED SERVICE WATER LOOP DEMAND SPLITTER,OFFICE SHARED SERVICE WATER LOOP DEMAND INLET BRANCH,OFFICE SHARED SERVICE WATER LOOP DEMAND BRANCH 2,OFFICE SHARED SERVICE WATER LOOP,Demand
     Plant Loop Connector Nodes,   2,Splitter,OFFICE SHARED SERVICE WATER LOOP DEMAND SPLITTER,NODE 28,NODE 30,OFFICE SHARED SERVICE WATER LOOP,Demand
     Plant Loop Connector Branches,3,Splitter,OFFICE SHARED SERVICE WATER LOOP DEMAND SPLITTER,OFFICE SHARED SERVICE WATER LOOP DEMAND INLET BRANCH,OFFICE SHARED SERVICE WATER LOOP DEMAND BYPASS BRANCH,OFFICE SHARED SERVICE WATER LOOP,Demand
     Plant Loop Connector Nodes,   3,Splitter,OFFICE SHARED SERVICE WATER LOOP DEMAND SPLITTER,NODE 28,OFFICE SHARED SERVICE WATER LOOP DEMAND BYPASS PIPE INLET NODE,OFFICE SHARED SERVICE WATER LOOP,Demand
   Plant Loop Connector,Mixer,OFFICE SHARED SERVICE WATER LOOP DEMAND MIXER,OFFICE SHARED SERVICE WATER LOOP,Demand,3
     Plant Loop Connector Branches,1,Mixer,OFFICE SHARED SERVICE WATER LOOP DEMAND MIXER,OFFICE SHARED SERVICE WATER LOOP DEMAND BRANCH 1,OFFICE SHARED SERVICE WATER LOOP DEMAND OUTLET BRANCH,OFFICE SHARED SERVICE WATER LOOP,Demand
     Plant Loop Connector Nodes,   1,Mixer,OFFICE SHARED SERVICE WATER LOOP DEMAND MIXER,NODE 26,NODE 29,OFFICE SHARED SERVICE WATER LOOP,Demand
     Plant Loop Connector Branches,2,Mixer,OFFICE SHARED SERVICE WATER LOOP DEMAND MIXER,OFFICE SHARED SERVICE WATER LOOP DEMAND BRANCH 2,OFFICE SHARED SERVICE WATER LOOP DEMAND OUTLET BRANCH,OFFICE SHARED SERVICE WATER LOOP,Demand
     Plant Loop Connector Nodes,   2,Mixer,OFFICE SHARED SERVICE WATER LOOP DEMAND MIXER,NODE 31,NODE 29,OFFICE SHARED SERVICE WATER LOOP,Demand
     Plant Loop Connector Branches,3,Mixer,OFFICE SHARED SERVICE WATER LOOP DEMAND MIXER,OFFICE SHARED SERVICE WATER LOOP DEMAND BYPASS BRANCH,OFFICE SHARED SERVICE WATER LOOP DEMAND OUTLET BRANCH,OFFICE SHARED SERVICE WATER LOOP,Demand
     Plant Loop Connector Nodes,   3,Mixer,OFFICE SHARED SERVICE WATER LOOP DEMAND MIXER,OFFICE SHARED SERVICE WATER LOOP DEMAND BYPASS PIPE OUTLET NODE,NODE 29,OFFICE SHARED SERVICE WATER LOOP,Demand
 Plant Loop,OFFICE SHARED SERVICE WATER LOOP,Supply,NODE 16,NODE 17,OFFICE SHARED SERVICE WATER LOOP SUPPLY BRANCHES,OFFICE SHARED SERVICE WATER LOOP SUPPLY CONNECTOR LIST
   Plant Loop Connector,Splitter,OFFICE SHARED SERVICE WATER LOOP SUPPLY SPLITTER,OFFICE SHARED SERVICE WATER LOOP,Supply,2
     Plant Loop Connector Branches,1,Splitter,OFFICE SHARED SERVICE WATER LOOP SUPPLY SPLITTER,OFFICE SHARED SERVICE WATER LOOP SUPPLY INLET BRANCH,OFFICE SHARED SERVICE WATER LOOP SUPPLY BRANCH 1,OFFICE SHARED SERVICE WATER LOOP,Supply
     Plant Loop Connector Nodes,   1,Splitter,OFFICE SHARED SERVICE WATER LOOP SUPPLY SPLITTER,NODE 22,NODE 18,OFFICE SHARED SERVICE WATER LOOP,Supply
     Plant Loop Connector Branches,2,Splitter,OFFICE SHARED SERVICE WATER LOOP SUPPLY SPLITTER,OFFICE SHARED SERVICE WATER LOOP SUPPLY INLET BRANCH,OFFICE SHARED SERVICE WATER LOOP SUPPLY BRANCH 2,OFFICE SHARED SERVICE WATER LOOP,Supply
     Plant Loop Connector Nodes,   2,Splitter,OFFICE SHARED SERVICE WATER LOOP SUPPLY SPLITTER,NODE 22,NODE 24,OFFICE SHARED SERVICE WATER LOOP,Supply
   Plant Loop Connector,Mixer,OFFICE SHARED SERVICE WATER LOOP SUPPLY MIXER,OFFICE SHARED SERVICE WATER LOOP,Supply,2
     Plant Loop Connector Branches,1,Mixer,OFFICE SHARED SERVICE WATER LOOP SUPPLY MIXER,OFFICE SHARED SERVICE WATER LOOP SUPPLY BRANCH 1,OFFICE SHARED SERVICE WATER LOOP SUPPLY OUTLET BRANCH,OFFICE SHARED SERVICE WATER LOOP,Supply
     Plant Loop Connector Nodes,   1,Mixer,OFFICE SHARED SERVICE WATER LOOP SUPPLY MIXER,NODE 23,NODE 27,OFFICE SHARED SERVICE WATER LOOP,Supply
     Plant Loop Connector Branches,2,Mixer,OFFICE SHARED SERVICE WATER LOOP SUPPLY MIXER,OFFICE SHARED SERVICE WATER LOOP SUPPLY BRANCH 2,OFFICE SHARED SERVICE WATER LOOP SUPPLY OUTLET BRANCH,OFFICE SHARED SERVICE WATER LOOP,Supply
     Plant Loop Connector Nodes,   2,Mixer,OFFICE SHARED SERVICE WATER LOOP SUPPLY MIXER,NODE 25,NODE 27,OFFICE SHARED SERVICE WATER LOOP,Supply
 Plant Loop Supply Connection,OFFICE SHARED SERVICE WATER LOOP,NODE 17,NODE 19
 Plant Loop Return Connection,OFFICE SHARED SERVICE WATER LOOP,NODE 20,NODE 16
! ===============================================================
! <# Condenser Loops>,<Number of Condenser Loops>
 #Condenser Loops,0
! <Condenser Loop>,<Condenser Loop Name>,<Loop Type>,<Inlet Node Name>,<Outlet Node Name>,<Branch List>,<Connector List>
! <Condenser Loop Connector>,<Connector Type>,<Connector Name>,<Loop Name>,<Loop Type>,<Number of Inlets/Outlets>
! <Condenser Loop Connector Branches>,<Connector Node Count>,<Connector Type>,<Connector Name>,<Inlet Branch>,<Outlet Branch>,<Loop Name>,<Loop Type>
! <Condenser Loop Connector Nodes>,<Connector Node Count>,<Connector Type>,<Connector Name>,<Inlet Node>,<Outlet Node>,<Loop Name>,<Loop Type>
! <Condenser Loop Supply Connection>,<Condenser Loop Name>,<Supply Side Outlet Node Name>,<Demand Side Inlet Node Name>
! <Condenser Loop Return Connection>,<Condenser Loop Name>,<Demand Side Outlet Node Name>,<Supply Side Inlet Node Name>
! ===============================================================
! <# Controlled Zones>,<Number of Controlled Zones>
 #Controlled Zones,15
! <Controlled Zone>,<Controlled Zone Name>,<Equip List Name>,<Control List Name>,<Zone Node Name>,<Return Air Node Name>,<# Inlet Nodes>,<# Exhaust Nodes>
! <Controlled Zone Inlet>,<Inlet Node Count>,<Controlled Zone Name>,<Supply Air Inlet Node Name>,<SD Sys:Cooling/Heating [DD:Cooling] Inlet Node Name>,<DD Sys:Heating Inlet Node Name>
! <Controlled Zone Exhaust>,<Exhaust Node Count>,<Controlled Zone Name>,<Exhaust Air Node Name>
 Controlled Zone,ZONE CORE SPACE - STORY GROUND,ZONE CORE SPACE - STORY GROUND EQUIPMENT LIST,,NODE 5,NODE 75,1,0
   Controlled Zone Inlet,1,ZONE CORE SPACE - STORY GROUND,NODE 74,NODE 76,N/A
 Controlled Zone,ZONE CORE SPACE - STORY MID,ZONE CORE SPACE - STORY MID EQUIPMENT LIST,,NODE 10,NODE 106,1,0
   Controlled Zone Inlet,1,ZONE CORE SPACE - STORY MID,NODE 105,NODE 107,N/A
 Controlled Zone,ZONE CORE SPACE - STORY TOP,ZONE CORE SPACE - STORY TOP EQUIPMENT LIST,,NODE 15,NODE 137,1,0
   Controlled Zone Inlet,1,ZONE CORE SPACE - STORY TOP,NODE 136,NODE 138,N/A
 Controlled Zone,ZONE EAST PERIMETER SPACE - STORY GROUND,ZONE EAST PERIMETER SPACE - STORY GROUND EQUIPMENT LIST,,NODE 3,NODE 80,1,0
   Controlled Zone Inlet,1,ZONE EAST PERIMETER SPACE - STORY GROUND,NODE 79,NODE 81,N/A
 Controlled Zone,ZONE EAST PERIMETER SPACE - STORY MID,ZONE EAST PERIMETER SPACE - STORY MID EQUIPMENT LIST,,NODE 8,NODE 101,1,0
   Controlled Zone Inlet,1,ZONE EAST PERIMETER SPACE - STORY MID,NODE 100,NODE 102,N/A
 Controlled Zone,ZONE EAST PERIMETER SPACE - STORY TOP,ZONE EAST PERIMETER SPACE - STORY TOP EQUIPMENT LIST,,NODE 13,NODE 142,1,0
   Controlled Zone Inlet,1,ZONE EAST PERIMETER SPACE - STORY TOP,NODE 141,NODE 143,N/A
 Controlled Zone,ZONE NORTH PERIMETER SPACE - STORY GROUND,ZONE NORTH PERIMETER SPACE - STORY GROUND EQUIPMENT LIST,,NODE 2,NODE 70,1,0
   Controlled Zone Inlet,1,ZONE NORTH PERIMETER SPACE - STORY GROUND,NODE 69,NODE 71,N/A
 Controlled Zone,ZONE NORTH PERIMETER SPACE - STORY MID,ZONE NORTH PERIMETER SPACE - STORY MID EQUIPMENT LIST,,NODE 7,NODE 96,1,0
   Controlled Zone Inlet,1,ZONE NORTH PERIMETER SPACE - STORY MID,NODE 86,NODE 97,N/A
 Controlled Zone,ZONE NORTH PERIMETER SPACE - STORY TOP,ZONE NORTH PERIMETER SPACE - STORY TOP EQUIPMENT LIST,,NODE 12,NODE 132,1,0
   Controlled Zone Inlet,1,ZONE NORTH PERIMETER SPACE - STORY TOP,NODE 122,NODE 133,N/A
 Controlled Zone,ZONE SOUTH PERIMETER SPACE - STORY GROUND,ZONE SOUTH PERIMETER SPACE - STORY GROUND EQUIPMENT LIST,,NODE 4,NODE 60,1,0
   Controlled Zone Inlet,1,ZONE SOUTH PERIMETER SPACE - STORY GROUND,NODE 50,NODE 61,N/A
 Controlled Zone,ZONE SOUTH PERIMETER SPACE - STORY MID,ZONE SOUTH PERIMETER SPACE - STORY MID EQUIPMENT LIST,,NODE 9,NODE 111,1,0
   Controlled Zone Inlet,1,ZONE SOUTH PERIMETER SPACE - STORY MID,NODE 110,NODE 112,N/A
 Controlled Zone,ZONE SOUTH PERIMETER SPACE - STORY TOP,ZONE SOUTH PERIMETER SPACE - STORY TOP EQUIPMENT LIST,,NODE 14,NODE 152,1,0
   Controlled Zone Inlet,1,ZONE SOUTH PERIMETER SPACE - STORY TOP,NODE 151,NODE 153,N/A
 Controlled Zone,ZONE WEST PERIMETER SPACE - STORY GROUND,ZONE WEST PERIMETER SPACE - STORY GROUND EQUIPMENT LIST,,NODE 1,NODE 65,1,0
   Controlled Zone Inlet,1,ZONE WEST PERIMETER SPACE - STORY GROUND,NODE 64,NODE 66,N/A
 Controlled Zone,ZONE WEST PERIMETER SPACE - STORY MID,ZONE WEST PERIMETER SPACE - STORY MID EQUIPMENT LIST,,NODE 6,NODE 116,1,0
   Controlled Zone Inlet,1,ZONE WEST PERIMETER SPACE - STORY MID,NODE 115,NODE 117,N/A
 Controlled Zone,ZONE WEST PERIMETER SPACE - STORY TOP,ZONE WEST PERIMETER SPACE - STORY TOP EQUIPMENT LIST,,NODE 11,NODE 147,1,0
   Controlled Zone Inlet,1,ZONE WEST PERIMETER SPACE - STORY TOP,NODE 146,NODE 148,N/A
! ===============================================================
! <#Zone Equipment Lists>,<Number of Zone Equipment Lists>
 #Zone Equipment Lists,15
! <Zone Equipment List>,<Zone Equipment List Count>,<Zone Equipment List Name>,<Zone Name>,<Number of Components>
! <Zone Equipment Component>,<Component Count>,<Component Type>,<Component Name>,<Zone Name>,<Heating Priority>,<Cooling Priority>
 Zone Equipment List,1,ZONE CORE SPACE - STORY GROUND EQUIPMENT LIST,ZONE CORE SPACE - STORY GROUND,1
   Zone Equipment Component,1,ZONEHVAC:AIRDISTRIBUTIONUNIT,ADU ZONE CORE SPACE - STORY GROUND VAV TERM,ZONE CORE SPACE - STORY GROUND,1,1
 Zone Equipment List,2,ZONE CORE SPACE - STORY MID EQUIPMENT LIST,ZONE CORE SPACE - STORY MID,1
   Zone Equipment Component,1,ZONEHVAC:AIRDISTRIBUTIONUNIT,ADU ZONE CORE SPACE - STORY MID VAV TERM,ZONE CORE SPACE - STORY MID,1,1
 Zone Equipment List,3,ZONE CORE SPACE - STORY TOP EQUIPMENT LIST,ZONE CORE SPACE - STORY TOP,1
   Zone Equipment Component,1,ZONEHVAC:AIRDISTRIBUTIONUNIT,ADU ZONE CORE SPACE - STORY TOP VAV TERM,ZONE CORE SPACE - STORY TOP,1,1
 Zone Equipment List,4,ZONE EAST PERIMETER SPACE - STORY GROUND EQUIPMENT LIST,ZONE EAST PERIMETER SPACE - STORY GROUND,1
   Zone Equipment Component,1,ZONEHVAC:AIRDISTRIBUTIONUNIT,ADU ZONE EAST PERIMETER SPACE - STORY GROUND VAV TERM,ZONE EAST PERIMETER SPACE - STORY GROUND,1,1
 Zone Equipment List,5,ZONE EAST PERIMETER SPACE - STORY MID EQUIPMENT LIST,ZONE EAST PERIMETER SPACE - STORY MID,1
   Zone Equipment Component,1,ZONEHVAC:AIRDISTRIBUTIONUNIT,ADU ZONE EAST PERIMETER SPACE - STORY MID VAV TERM,ZONE EAST PERIMETER SPACE - STORY MID,1,1
 Zone Equipment List,6,ZONE EAST PERIMETER SPACE - STORY TOP EQUIPMENT LIST,ZONE EAST PERIMETER SPACE - STORY TOP,1
   Zone Equipment Component,1,ZONEHVAC:AIRDISTRIBUTIONUNIT,ADU ZONE EAST PERIMETER SPACE - STORY TOP VAV TERM,ZONE EAST PERIMETER SPACE - STORY TOP,1,1
 Zone Equipment List,7,ZONE NORTH PERIMETER SPACE - STORY GROUND EQUIPMENT LIST,ZONE NORTH PERIMETER SPACE - STORY GROUND,1
   Zone Equipment Component,1,ZONEHVAC:AIRDISTRIBUTIONUNIT,ADU ZONE NORTH PERIMETER SPACE - STORY GROUND VAV TERM,ZONE NORTH PERIMETER SPACE - STORY GROUND,1,1
 Zone Equipment List,8,ZONE NORTH PERIMETER SPACE - STORY MID EQUIPMENT LIST,ZONE NORTH PERIMETER SPACE - STORY MID,1
   Zone Equipment Component,1,ZONEHVAC:AIRDISTRIBUTIONUNIT,ADU ZONE NORTH PERIMETER SPACE - STORY MID VAV TERM,ZONE NORTH PERIMETER SPACE - STORY MID,1,1
 Zone Equipment List,9,ZONE NORTH PERIMETER SPACE - STORY TOP EQUIPMENT LIST,ZONE NORTH PERIMETER SPACE - STORY TOP,1
   Zone Equipment Component,1,ZONEHVAC:AIRDISTRIBUTIONUNIT,ADU ZONE NORTH PERIMETER SPACE - STORY TOP VAV TERM,ZONE NORTH PERIMETER SPACE - STORY TOP,1,1
 Zone Equipment List,10,ZONE SOUTH PERIMETER SPACE - STORY GROUND EQUIPMENT LIST,ZONE SOUTH PERIMETER SPACE - STORY GROUND,1
   Zone Equipment Component,1,ZONEHVAC:AIRDISTRIBUTIONUNIT,ADU ZONE SOUTH PERIMETER SPACE - STORY GROUND VAV TERM,ZONE SOUTH PERIMETER SPACE - STORY GROUND,1,1
 Zone Equipment List,11,ZONE SOUTH PERIMETER SPACE - STORY MID EQUIPMENT LIST,ZONE SOUTH PERIMETER SPACE - STORY MID,1
   Zone Equipment Component,1,ZONEHVAC:AIRDISTRIBUTIONUNIT,ADU ZONE SOUTH PERIMETER SPACE - STORY MID VAV TERM,ZONE SOUTH PERIMETER SPACE - STORY MID,1,1
 Zone Equipment List,12,ZONE SOUTH PERIMETER SPACE - STORY TOP EQUIPMENT LIST,ZONE SOUTH PERIMETER SPACE - STORY TOP,1
   Zone Equipment Component,1,ZONEHVAC:AIRDISTRIBUTIONUNIT,ADU ZONE SOUTH PERIMETER SPACE - STORY TOP VAV TERM,ZONE SOUTH PERIMETER SPACE - STORY TOP,1,1
 Zone Equipment List,13,ZONE WEST PERIMETER SPACE - STORY GROUND EQUIPMENT LIST,ZONE WEST PERIMETER SPACE - STORY GROUND,1
   Zone Equipment Component,1,ZONEHVAC:AIRDISTRIBUTIONUNIT,ADU ZONE WEST PERIMETER SPACE - STORY GROUND VAV TERM,ZONE WEST PERIMETER SPACE - STORY GROUND,1,1
 Zone Equipment List,14,ZONE WEST PERIMETER SPACE - STORY MID EQUIPMENT LIST,ZONE WEST PERIMETER SPACE - STORY MID,1
   Zone Equipment Component,1,ZONEHVAC:AIRDISTRIBUTIONUNIT,ADU ZONE WEST PERIMETER SPACE - STORY MID VAV TERM,ZONE WEST PERIMETER SPACE - STORY MID,1,1
 Zone Equipment List,15,ZONE WEST PERIMETER SPACE - STORY TOP EQUIPMENT LIST,ZONE WEST PERIMETER SPACE - STORY TOP,1
   Zone Equipment Component,1,ZONEHVAC:AIRDISTRIBUTIONUNIT,ADU ZONE WEST PERIMETER SPACE - STORY TOP VAV TERM,ZONE WEST PERIMETER SPACE - STORY TOP,1,1
! ===============================================================
! <#AirLoopHVACs>,<Number of AirLoopHVACs>
 #AirLoopHVACs,3
! <AirLoopHVAC>,<Air Loop Name>,<# Return Nodes>,<# Supply Nodes>,<# Zones Cooled>,<# Zones Heated>,<Outdoor Air Used>
! <AirLoop Return Connections>,<Connection Count>,<AirLoopHVAC Name>,<Zn Eqp Return Node #>,<Zn Eqp Return Node Name>,<AirLoop Return Node #>,<Air Loop Return Node Name>
! <AirLoop Supply Connections>,<Connection Count>,<AirLoopHVAC Name>,<Zn Eqp Supply Node #>,<Zn Eqp Supply Node Name>,<AirLoop Supply Node #>,<Air Loop Supply Node Name>
! <Cooled Zone Info>,<Cooled Zone Count>,<Cooled Zone Name>,<Cooled Zone Inlet Node #>,<Cooled Zone Inlet Node Name>,<AirLoopHVAC Name>
! <Heated Zone Info>,<Heated Zone Count>,<Heated Zone Name>,<Heated Zone Inlet Node #>,<Heated Zone Inlet Node Name>,<AirLoopHVAC Name>
! <Outdoor Air Connections>,<OA Inlet Node #>,<OA Return Air Inlet Node Name>,<OA Outlet Node #>,<OA Mixed Air Outlet Node Name>,<AirLoopHVAC Name>
! <AirLoopHVAC Connector>,<Connector Type>,<Connector Name>,<Loop Name>,<Loop Type>,<Number of Inlets/Outlets>
! <AirLoopHVAC Connector Branches>,<Connector Node Count>,<Connector Type>,<Connector Name>,<Inlet Branch>,<Outlet Branch>,<Loop Name>,<Loop Type>
! <AirLoopHVAC Connector Nodes>,<Connector Node Count>,<Connector Type>,<Connector Name>,<Inlet Node>,<Outlet Node>,<Loop Name>,<Loop Type>
 AirLoopHVAC,5 ZONE PVAV,1,1,5,0,Yes
   AirLoop Return Connections,1,5 ZONE PVAV,137,NODE 49,22,NODE 46
   AirLoop Supply Connections,1,5 ZONE PVAV,17,NODE 48,16,NODE 47
   Cooled Zone Info,1,ZONE SOUTH PERIMETER SPACE - STORY GROUND,10,NODE 50,5 ZONE PVAV
   Cooled Zone Info,2,ZONE WEST PERIMETER SPACE - STORY GROUND,13,NODE 64,5 ZONE PVAV
   Cooled Zone Info,3,ZONE NORTH PERIMETER SPACE - STORY GROUND,7,NODE 69,5 ZONE PVAV
   Cooled Zone Info,4,ZONE CORE SPACE - STORY GROUND,1,NODE 74,5 ZONE PVAV
   Cooled Zone Info,5,ZONE EAST PERIMETER SPACE - STORY GROUND,4,NODE 79,5 ZONE PVAV
   Outdoor Air Connections,22,NODE 46,23,NODE 57,5 ZONE PVAV
 AirLoopHVAC,5 ZONE PVAV 1,1,1,5,0,Yes
   AirLoop Return Connections,1,5 ZONE PVAV 1,138,NODE 85,26,NODE 82
   AirLoop Supply Connections,1,5 ZONE PVAV 1,19,NODE 84,18,NODE 83
   Cooled Zone Info,1,ZONE NORTH PERIMETER SPACE - STORY MID,8,NODE 86,5 ZONE PVAV 1
   Cooled Zone Info,2,ZONE EAST PERIMETER SPACE - STORY MID,5,NODE 100,5 ZONE PVAV 1
   Cooled Zone Info,3,ZONE CORE SPACE - STORY MID,2,NODE 105,5 ZONE PVAV 1
   Cooled Zone Info,4,ZONE SOUTH PERIMETER SPACE - STORY MID,11,NODE 110,5 ZONE PVAV 1
   Cooled Zone Info,5,ZONE WEST PERIMETER SPACE - STORY MID,14,NODE 115,5 ZONE PVAV 1
   Outdoor Air Connections,26,NODE 82,27,NODE 93,5 ZONE PVAV 1
 AirLoopHVAC,5 ZONE PVAV 2,1,1,5,0,Yes
   AirLoop Return Connections,1,5 ZONE PVAV 2,139,NODE 121,30,NODE 118
   AirLoop Supply Connections,1,5 ZONE PVAV 2,21,NODE 120,20,NODE 119
   Cooled Zone Info,1,ZONE NORTH PERIMETER SPACE - STORY TOP,9,NODE 122,5 ZONE PVAV 2
   Cooled Zone Info,2,ZONE CORE SPACE - STORY TOP,3,NODE 136,5 ZONE PVAV 2
   Cooled Zone Info,3,ZONE EAST PERIMETER SPACE - STORY TOP,6,NODE 141,5 ZONE PVAV 2
   Cooled Zone Info,4,ZONE WEST PERIMETER SPACE - STORY TOP,15,NODE 146,5 ZONE PVAV 2
   Cooled Zone Info,5,ZONE SOUTH PERIMETER SPACE - STORY TOP,12,NODE 151,5 ZONE PVAV 2
   Outdoor Air Connections,30,NODE 118,31,NODE 129,5 ZONE PVAV 2
! ===============================================================
! <#Parent Node Connections>,<Number of Parent Node Connections>
 #Parent Node Connections,152
! <Parent Node Connection>,<Node Name>,<Node ObjectType>,<Node ObjectName>,<Node ConnectionType>,<Node FluidStream>
 Parent Node Connection,NODE 46,BRANCH,5 ZONE PVAV MAIN BRANCH,Inlet,1
 Parent Node Connection,NODE 57,BRANCH,5 ZONE PVAV MAIN BRANCH,Internal,1
 Parent Node Connection,NODE 54,BRANCH,5 ZONE PVAV MAIN BRANCH,Internal,1
 Parent Node Connection,NODE 51,BRANCH,5 ZONE PVAV MAIN BRANCH,Internal,1
 Parent Node Connection,NODE 47,BRANCH,5 ZONE PVAV MAIN BRANCH,Outlet,1
 Parent Node Connection,NODE 82,BRANCH,5 ZONE PVAV 1 MAIN BRANCH,Inlet,1
 Parent Node Connection,NODE 93,BRANCH,5 ZONE PVAV 1 MAIN BRANCH,Internal,1
 Parent Node Connection,NODE 90,BRANCH,5 ZONE PVAV 1 MAIN BRANCH,Internal,1
 Parent Node Connection,NODE 87,BRANCH,5 ZONE PVAV 1 MAIN BRANCH,Internal,1
 Parent Node Connection,NODE 83,BRANCH,5 ZONE PVAV 1 MAIN BRANCH,Outlet,1
 Parent Node Connection,NODE 118,BRANCH,5 ZONE PVAV 2 MAIN BRANCH,Inlet,1
 Parent Node Connection,NODE 129,BRANCH,5 ZONE PVAV 2 MAIN BRANCH,Internal,1
 Parent Node Connection,NODE 126,BRANCH,5 ZONE PVAV 2 MAIN BRANCH,Internal,1
 Parent Node Connection,NODE 123,BRANCH,5 ZONE PVAV 2 MAIN BRANCH,Internal,1
 Parent Node Connection,NODE 119,BRANCH,5 ZONE PVAV 2 MAIN BRANCH,Outlet,1
 Parent Node Connection,NODE 32,BRANCH,HOT WATER LOOP SUPPLY INLET BRANCH,Inlet,1
 Parent Node Connection,NODE 38,BRANCH,HOT WATER LOOP SUPPLY INLET BRANCH,Outlet,1
 Parent Node Connection,NODE 34,BRANCH,HOT WATER LOOP SUPPLY BRANCH 1,Inlet,1
 Parent Node Connection,NODE 39,BRANCH,HOT WATER LOOP SUPPLY BRANCH 1,Outlet,1
 Parent Node Connection,NODE 40,BRANCH,HOT WATER LOOP SUPPLY BRANCH 2,Inlet,1
 Parent Node Connection,NODE 41,BRANCH,HOT WATER LOOP SUPPLY BRANCH 2,Outlet,1
 Parent Node Connection,NODE 43,BRANCH,HOT WATER LOOP SUPPLY OUTLET BRANCH,Inlet,1
 Parent Node Connection,NODE 33,BRANCH,HOT WATER LOOP SUPPLY OUTLET BRANCH,Outlet,1
 Parent Node Connection,NODE 35,BRANCH,HOT WATER LOOP DEMAND INLET BRANCH,Inlet,1
 Parent Node Connection,NODE 44,BRANCH,HOT WATER LOOP DEMAND INLET BRANCH,Outlet,1
 Parent Node Connection,NODE 37,BRANCH,HOT WATER LOOP DEMAND BRANCH 1,Inlet,1
 Parent Node Connection,NODE 42,BRANCH,HOT WATER LOOP DEMAND BRANCH 1,Outlet,1
 Parent Node Connection,NODE 52,BRANCH,HOT WATER LOOP DEMAND BRANCH 2,Inlet,1
 Parent Node Connection,NODE 53,BRANCH,HOT WATER LOOP DEMAND BRANCH 2,Outlet,1
 Parent Node Connection,NODE 58,BRANCH,HOT WATER LOOP DEMAND BRANCH 3,Inlet,1
 Parent Node Connection,NODE 59,BRANCH,HOT WATER LOOP DEMAND BRANCH 3,Outlet,1
 Parent Node Connection,NODE 62,BRANCH,HOT WATER LOOP DEMAND BRANCH 4,Inlet,1
 Parent Node Connection,NODE 63,BRANCH,HOT WATER LOOP DEMAND BRANCH 4,Outlet,1
 Parent Node Connection,NODE 67,BRANCH,HOT WATER LOOP DEMAND BRANCH 5,Inlet,1
 Parent Node Connection,NODE 68,BRANCH,HOT WATER LOOP DEMAND BRANCH 5,Outlet,1
 Parent Node Connection,NODE 72,BRANCH,HOT WATER LOOP DEMAND BRANCH 6,Inlet,1
 Parent Node Connection,NODE 73,BRANCH,HOT WATER LOOP DEMAND BRANCH 6,Outlet,1
 Parent Node Connection,NODE 77,BRANCH,HOT WATER LOOP DEMAND BRANCH 7,Inlet,1
 Parent Node Connection,NODE 78,BRANCH,HOT WATER LOOP DEMAND BRANCH 7,Outlet,1
 Parent Node Connection,NODE 88,BRANCH,HOT WATER LOOP DEMAND BRANCH 8,Inlet,1
 Parent Node Connection,NODE 89,BRANCH,HOT WATER LOOP DEMAND BRANCH 8,Outlet,1
 Parent Node Connection,NODE 94,BRANCH,HOT WATER LOOP DEMAND BRANCH 9,Inlet,1
 Parent Node Connection,NODE 95,BRANCH,HOT WATER LOOP DEMAND BRANCH 9,Outlet,1
 Parent Node Connection,NODE 98,BRANCH,HOT WATER LOOP DEMAND BRANCH 10,Inlet,1
 Parent Node Connection,NODE 99,BRANCH,HOT WATER LOOP DEMAND BRANCH 10,Outlet,1
 Parent Node Connection,NODE 103,BRANCH,HOT WATER LOOP DEMAND BRANCH 11,Inlet,1
 Parent Node Connection,NODE 104,BRANCH,HOT WATER LOOP DEMAND BRANCH 11,Outlet,1
 Parent Node Connection,NODE 108,BRANCH,HOT WATER LOOP DEMAND BRANCH 12,Inlet,1
 Parent Node Connection,NODE 109,BRANCH,HOT WATER LOOP DEMAND BRANCH 12,Outlet,1
 Parent Node Connection,NODE 113,BRANCH,HOT WATER LOOP DEMAND BRANCH 13,Inlet,1
 Parent Node Connection,NODE 114,BRANCH,HOT WATER LOOP DEMAND BRANCH 13,Outlet,1
 Parent Node Connection,NODE 124,BRANCH,HOT WATER LOOP DEMAND BRANCH 14,Inlet,1
 Parent Node Connection,NODE 125,BRANCH,HOT WATER LOOP DEMAND BRANCH 14,Outlet,1
 Parent Node Connection,NODE 130,BRANCH,HOT WATER LOOP DEMAND BRANCH 15,Inlet,1
 Parent Node Connection,NODE 131,BRANCH,HOT WATER LOOP DEMAND BRANCH 15,Outlet,1
 Parent Node Connection,NODE 134,BRANCH,HOT WATER LOOP DEMAND BRANCH 16,Inlet,1
 Parent Node Connection,NODE 135,BRANCH,HOT WATER LOOP DEMAND BRANCH 16,Outlet,1
 Parent Node Connection,NODE 139,BRANCH,HOT WATER LOOP DEMAND BRANCH 17,Inlet,1
 Parent Node Connection,NODE 140,BRANCH,HOT WATER LOOP DEMAND BRANCH 17,Outlet,1
 Parent Node Connection,NODE 144,BRANCH,HOT WATER LOOP DEMAND BRANCH 18,Inlet,1
 Parent Node Connection,NODE 145,BRANCH,HOT WATER LOOP DEMAND BRANCH 18,Outlet,1
 Parent Node Connection,NODE 149,BRANCH,HOT WATER LOOP DEMAND BRANCH 19,Inlet,1
 Parent Node Connection,NODE 150,BRANCH,HOT WATER LOOP DEMAND BRANCH 19,Outlet,1
 Parent Node Connection,HOT WATER LOOP DEMAND BYPASS PIPE INLET NODE,BRANCH,HOT WATER LOOP DEMAND BYPASS BRANCH,Inlet,1
 Parent Node Connection,HOT WATER LOOP DEMAND BYPASS PIPE OUTLET NODE,BRANCH,HOT WATER LOOP DEMAND BYPASS BRANCH,Outlet,1
 Parent Node Connection,NODE 45,BRANCH,HOT WATER LOOP DEMAND OUTLET BRANCH,Inlet,1
 Parent Node Connection,NODE 36,BRANCH,HOT WATER LOOP DEMAND OUTLET BRANCH,Outlet,1
 Parent Node Connection,NODE 16,BRANCH,OFFICE SHARED SERVICE WATER LOOP SUPPLY INLET BRANCH,Inlet,1
 Parent Node Connection,NODE 22,BRANCH,OFFICE SHARED SERVICE WATER LOOP SUPPLY INLET BRANCH,Outlet,1
 Parent Node Connection,NODE 18,BRANCH,OFFICE SHARED SERVICE WATER LOOP SUPPLY BRANCH 1,Inlet,1
 Parent Node Connection,NODE 23,BRANCH,OFFICE SHARED SERVICE WATER LOOP SUPPLY BRANCH 1,Outlet,1
 Parent Node Connection,NODE 24,BRANCH,OFFICE SHARED SERVICE WATER LOOP SUPPLY BRANCH 2,Inlet,1
 Parent Node Connection,NODE 25,BRANCH,OFFICE SHARED SERVICE WATER LOOP SUPPLY BRANCH 2,Outlet,1
 Parent Node Connection,NODE 27,BRANCH,OFFICE SHARED SERVICE WATER LOOP SUPPLY OUTLET BRANCH,Inlet,1
 Parent Node Connection,NODE 17,BRANCH,OFFICE SHARED SERVICE WATER LOOP SUPPLY OUTLET BRANCH,Outlet,1
 Parent Node Connection,NODE 19,BRANCH,OFFICE SHARED SERVICE WATER LOOP DEMAND INLET BRANCH,Inlet,1
 Parent Node Connection,NODE 28,BRANCH,OFFICE SHARED SERVICE WATER LOOP DEMAND INLET BRANCH,Outlet,1
 Parent Node Connection,NODE 21,BRANCH,OFFICE SHARED SERVICE WATER LOOP DEMAND BRANCH 1,Inlet,1
 Parent Node Connection,NODE 26,BRANCH,OFFICE SHARED SERVICE WATER LOOP DEMAND BRANCH 1,Outlet,1
 Parent Node Connection,NODE 30,BRANCH,OFFICE SHARED SERVICE WATER LOOP DEMAND BRANCH 2,Inlet,1
 Parent Node Connection,NODE 31,BRANCH,OFFICE SHARED SERVICE WATER LOOP DEMAND BRANCH 2,Outlet,1
 Parent Node Connection,OFFICE SHARED SERVICE WATER LOOP DEMAND BYPASS PIPE INLET NODE,BRANCH,OFFICE SHARED SERVICE WATER LOOP DEMAND BYPASS BRANCH,Inlet,1
 Parent Node Connection,OFFICE SHARED SERVICE WATER LOOP DEMAND BYPASS PIPE OUTLET NODE,BRANCH,OFFICE SHARED SERVICE WATER LOOP DEMAND BYPASS BRANCH,Outlet,1
 Parent Node Connection,NODE 29,BRANCH,OFFICE SHARED SERVICE WATER LOOP DEMAND OUTLET BRANCH,Inlet,1
 Parent Node Connection,NODE 20,BRANCH,OFFICE SHARED SERVICE WATER LOOP DEMAND OUTLET BRANCH,Outlet,1
 Parent Node Connection,NODE 32,PLANTLOOP,HOT WATER LOOP,Inlet,1
 Parent Node Connection,NODE 33,PLANTLOOP,HOT WATER LOOP,Outlet,1
 Parent Node Connection,NODE 35,PLANTLOOP,HOT WATER LOOP,Inlet,1
 Parent Node Connection,NODE 36,PLANTLOOP,HOT WATER LOOP,Outlet,1
 Parent Node Connection,NODE 33,PLANTLOOP,HOT WATER LOOP,Sensor,1
 Parent Node Connection,NODE 16,PLANTLOOP,OFFICE SHARED SERVICE WATER LOOP,Inlet,1
 Parent Node Connection,NODE 17,PLANTLOOP,OFFICE SHARED SERVICE WATER LOOP,Outlet,1
 Parent Node Connection,NODE 19,PLANTLOOP,OFFICE SHARED SERVICE WATER LOOP,Inlet,1
 Parent Node Connection,NODE 20,PLANTLOOP,OFFICE SHARED SERVICE WATER LOOP,Outlet,1
 Parent Node Connection,NODE 17,PLANTLOOP,OFFICE SHARED SERVICE WATER LOOP,Sensor,1
 Parent Node Connection,NODE 48,AIRLOOPHVAC:SUPPLYPATH,5 ZONE PVAV NODE 48 SUPPLY PATH,Inlet,1
 Parent Node Connection,NODE 84,AIRLOOPHVAC:SUPPLYPATH,5 ZONE PVAV 1 NODE 84 SUPPLY PATH,Inlet,1
 Parent Node Connection,NODE 120,AIRLOOPHVAC:SUPPLYPATH,5 ZONE PVAV 2 NODE 120 SUPPLY PATH,Inlet,1
 Parent Node Connection,NODE 49,AIRLOOPHVAC:RETURNPATH,5 ZONE PVAV RETURN PATH,Outlet,1
 Parent Node Connection,NODE 85,AIRLOOPHVAC:RETURNPATH,5 ZONE PVAV 1 RETURN PATH,Outlet,1
 Parent Node Connection,NODE 121,AIRLOOPHVAC:RETURNPATH,5 ZONE PVAV 2 RETURN PATH,Outlet,1
 Parent Node Connection,NODE 74,ZONEHVAC:AIRDISTRIBUTIONUNIT,ADU ZONE CORE SPACE - STORY GROUND VAV TERM,Outlet,1
 Parent Node Connection,NODE 105,ZONEHVAC:AIRDISTRIBUTIONUNIT,ADU ZONE CORE SPACE - STORY MID VAV TERM,Outlet,1
 Parent Node Connection,NODE 136,ZONEHVAC:AIRDISTRIBUTIONUNIT,ADU ZONE CORE SPACE - STORY TOP VAV TERM,Outlet,1
 Parent Node Connection,NODE 79,ZONEHVAC:AIRDISTRIBUTIONUNIT,ADU ZONE EAST PERIMETER SPACE - STORY GROUND VAV TERM,Outlet,1
 Parent Node Connection,NODE 100,ZONEHVAC:AIRDISTRIBUTIONUNIT,ADU ZONE EAST PERIMETER SPACE - STORY MID VAV TERM,Outlet,1
 Parent Node Connection,NODE 141,ZONEHVAC:AIRDISTRIBUTIONUNIT,ADU ZONE EAST PERIMETER SPACE - STORY TOP VAV TERM,Outlet,1
 Parent Node Connection,NODE 69,ZONEHVAC:AIRDISTRIBUTIONUNIT,ADU ZONE NORTH PERIMETER SPACE - STORY GROUND VAV TERM,Outlet,1
 Parent Node Connection,NODE 86,ZONEHVAC:AIRDISTRIBUTIONUNIT,ADU ZONE NORTH PERIMETER SPACE - STORY MID VAV TERM,Outlet,1
 Parent Node Connection,NODE 122,ZONEHVAC:AIRDISTRIBUTIONUNIT,ADU ZONE NORTH PERIMETER SPACE - STORY TOP VAV TERM,Outlet,1
 Parent Node Connection,NODE 50,ZONEHVAC:AIRDISTRIBUTIONUNIT,ADU ZONE SOUTH PERIMETER SPACE - STORY GROUND VAV TERM,Outlet,1
 Parent Node Connection,NODE 110,ZONEHVAC:AIRDISTRIBUTIONUNIT,ADU ZONE SOUTH PERIMETER SPACE - STORY MID VAV TERM,Outlet,1
 Parent Node Connection,NODE 151,ZONEHVAC:AIRDISTRIBUTIONUNIT,ADU ZONE SOUTH PERIMETER SPACE - STORY TOP VAV TERM,Outlet,1
 Parent Node Connection,NODE 64,ZONEHVAC:AIRDISTRIBUTIONUNIT,ADU ZONE WEST PERIMETER SPACE - STORY GROUND VAV TERM,Outlet,1
 Parent Node Connection,NODE 115,ZONEHVAC:AIRDISTRIBUTIONUNIT,ADU ZONE WEST PERIMETER SPACE - STORY MID VAV TERM,Outlet,1
 Parent Node Connection,NODE 146,ZONEHVAC:AIRDISTRIBUTIONUNIT,ADU ZONE WEST PERIMETER SPACE - STORY TOP VAV TERM,Outlet,1
 Parent Node Connection,NODE 74,AIRTERMINAL:SINGLEDUCT:VAV:REHEAT,ZONE CORE SPACE - STORY GROUND VAV TERM,Outlet,1
 Parent Node Connection,NODE 105,AIRTERMINAL:SINGLEDUCT:VAV:REHEAT,ZONE CORE SPACE - STORY MID VAV TERM,Outlet,1
 Parent Node Connection,NODE 136,AIRTERMINAL:SINGLEDUCT:VAV:REHEAT,ZONE CORE SPACE - STORY TOP VAV TERM,Outlet,1
 Parent Node Connection,NODE 79,AIRTERMINAL:SINGLEDUCT:VAV:REHEAT,ZONE EAST PERIMETER SPACE - STORY GROUND VAV TERM,Outlet,1
 Parent Node Connection,NODE 100,AIRTERMINAL:SINGLEDUCT:VAV:REHEAT,ZONE EAST PERIMETER SPACE - STORY MID VAV TERM,Outlet,1
 Parent Node Connection,NODE 141,AIRTERMINAL:SINGLEDUCT:VAV:REHEAT,ZONE EAST PERIMETER SPACE - STORY TOP VAV TERM,Outlet,1
 Parent Node Connection,NODE 69,AIRTERMINAL:SINGLEDUCT:VAV:REHEAT,ZONE NORTH PERIMETER SPACE - STORY GROUND VAV TERM,Outlet,1
 Parent Node Connection,NODE 86,AIRTERMINAL:SINGLEDUCT:VAV:REHEAT,ZONE NORTH PERIMETER SPACE - STORY MID VAV TERM,Outlet,1
 Parent Node Connection,NODE 122,AIRTERMINAL:SINGLEDUCT:VAV:REHEAT,ZONE NORTH PERIMETER SPACE - STORY TOP VAV TERM,Outlet,1
 Parent Node Connection,NODE 50,AIRTERMINAL:SINGLEDUCT:VAV:REHEAT,ZONE SOUTH PERIMETER SPACE - STORY GROUND VAV TERM,Outlet,1
 Parent Node Connection,NODE 110,AIRTERMINAL:SINGLEDUCT:VAV:REHEAT,ZONE SOUTH PERIMETER SPACE - STORY MID VAV TERM,Outlet,1
 Parent Node Connection,NODE 151,AIRTERMINAL:SINGLEDUCT:VAV:REHEAT,ZONE SOUTH PERIMETER SPACE - STORY TOP VAV TERM,Outlet,1
 Parent Node Connection,NODE 64,AIRTERMINAL:SINGLEDUCT:VAV:REHEAT,ZONE WEST PERIMETER SPACE - STORY GROUND VAV TERM,Outlet,1
 Parent Node Connection,NODE 115,AIRTERMINAL:SINGLEDUCT:VAV:REHEAT,ZONE WEST PERIMETER SPACE - STORY MID VAV TERM,Outlet,1
 Parent Node Connection,NODE 146,AIRTERMINAL:SINGLEDUCT:VAV:REHEAT,ZONE WEST PERIMETER SPACE - STORY TOP VAV TERM,Outlet,1
 Parent Node Connection,NODE 46,AIRLOOPHVAC,5 ZONE PVAV,Inlet,1
 Parent Node Connection,NODE 49,AIRLOOPHVAC,5 ZONE PVAV,Outlet,1
 Parent Node Connection,NODE 48,AIRLOOPHVAC,5 ZONE PVAV,Inlet,1
 Parent Node Connection,NODE 47,AIRLOOPHVAC,5 ZONE PVAV,Outlet,1
 Parent Node Connection,NODE 82,AIRLOOPHVAC,5 ZONE PVAV 1,Inlet,1
 Parent Node Connection,NODE 85,AIRLOOPHVAC,5 ZONE PVAV 1,Outlet,1
 Parent Node Connection,NODE 84,AIRLOOPHVAC,5 ZONE PVAV 1,Inlet,1
 Parent Node Connection,NODE 83,AIRLOOPHVAC,5 ZONE PVAV 1,Outlet,1
[...]
 Non-Parent Node Connection,NODE 120,AIRLOOPHVAC:ZONESPLITTER,AIR LOOP HVAC ZONE SPLITTER 3,Inlet,1
 Non-Parent Node Connection,NODE 133,AIRLOOPHVAC:ZONESPLITTER,AIR LOOP HVAC ZONE SPLITTER 3,Outlet,1
 Non-Parent Node Connection,NODE 138,AIRLOOPHVAC:ZONESPLITTER,AIR LOOP HVAC ZONE SPLITTER 3,Outlet,1
 Non-Parent Node Connection,NODE 143,AIRLOOPHVAC:ZONESPLITTER,AIR LOOP HVAC ZONE SPLITTER 3,Outlet,1
 Non-Parent Node Connection,NODE 148,AIRLOOPHVAC:ZONESPLITTER,AIR LOOP HVAC ZONE SPLITTER 3,Outlet,1
 Non-Parent Node Connection,NODE 153,AIRLOOPHVAC:ZONESPLITTER,AIR LOOP HVAC ZONE SPLITTER 3,Outlet,1
 Non-Parent Node Connection,ZONE CORE SPACE - STORY GROUND VAV TERM DAMPER OUTLET,AIRTERMINAL:SINGLEDUCT:VAV:REHEAT,ZONE CORE SPACE - STORY GROUND VAV TERM,Outlet,1
 Non-Parent Node Connection,NODE 76,AIRTERMINAL:SINGLEDUCT:VAV:REHEAT,ZONE CORE SPACE - STORY GROUND VAV TERM,Inlet,1
 Non-Parent Node Connection,NODE 72,COIL:HEATING:WATER,ZONE CORE SPACE - STORY GROUND RHT COIL,Inlet,2
 Non-Parent Node Connection,NODE 73,COIL:HEATING:WATER,ZONE CORE SPACE - STORY GROUND RHT COIL,Outlet,2
 Non-Parent Node Connection,ZONE CORE SPACE - STORY GROUND VAV TERM DAMPER OUTLET,COIL:HEATING:WATER,ZONE CORE SPACE - STORY GROUND RHT COIL,Inlet,1
 Non-Parent Node Connection,NODE 74,COIL:HEATING:WATER,ZONE CORE SPACE - STORY GROUND RHT COIL,Outlet,1
 Non-Parent Node Connection,NODE 103,COIL:HEATING:WATER,ZONE CORE SPACE - STORY MID RHT COIL,Inlet,2
 Non-Parent Node Connection,NODE 104,COIL:HEATING:WATER,ZONE CORE SPACE - STORY MID RHT COIL,Outlet,2
 Non-Parent Node Connection,ZONE CORE SPACE - STORY MID VAV TERM DAMPER OUTLET,COIL:HEATING:WATER,ZONE CORE SPACE - STORY MID RHT COIL,Inlet,1
 Non-Parent Node Connection,NODE 105,COIL:HEATING:WATER,ZONE CORE SPACE - STORY MID RHT COIL,Outlet,1
 Non-Parent Node Connection,NODE 134,COIL:HEATING:WATER,ZONE CORE SPACE - STORY TOP RHT COIL,Inlet,2
 Non-Parent Node Connection,NODE 135,COIL:HEATING:WATER,ZONE CORE SPACE - STORY TOP RHT COIL,Outlet,2
 Non-Parent Node Connection,ZONE CORE SPACE - STORY TOP VAV TERM DAMPER OUTLET,COIL:HEATING:WATER,ZONE CORE SPACE - STORY TOP RHT COIL,Inlet,1
 Non-Parent Node Connection,NODE 136,COIL:HEATING:WATER,ZONE CORE SPACE - STORY TOP RHT COIL,Outlet,1
 Non-Parent Node Connection,NODE 77,COIL:HEATING:WATER,ZONE EAST PERIMETER SPACE - STORY GROUND RHT COIL,Inlet,2
 Non-Parent Node Connection,NODE 78,COIL:HEATING:WATER,ZONE EAST PERIMETER SPACE - STORY GROUND RHT COIL,Outlet,2
 Non-Parent Node Connection,ZONE EAST PERIMETER SPACE - STORY GROUND VAV TERM DAMPER OUTLET,COIL:HEATING:WATER,ZONE EAST PERIMETER SPACE - STORY GROUND RHT COIL,Inlet,1
 Non-Parent Node Connection,NODE 79,COIL:HEATING:WATER,ZONE EAST PERIMETER SPACE - STORY GROUND RHT COIL,Outlet,1
 Non-Parent Node Connection,NODE 98,COIL:HEATING:WATER,ZONE EAST PERIMETER SPACE - STORY MID RHT COIL,Inlet,2
 Non-Parent Node Connection,NODE 99,COIL:HEATING:WATER,ZONE EAST PERIMETER SPACE - STORY MID RHT COIL,Outlet,2
 Non-Parent Node Connection,ZONE EAST PERIMETER SPACE - STORY MID VAV TERM DAMPER OUTLET,COIL:HEATING:WATER,ZONE EAST PERIMETER SPACE - STORY MID RHT COIL,Inlet,1
 Non-Parent Node Connection,NODE 100,COIL:HEATING:WATER,ZONE EAST PERIMETER SPACE - STORY MID RHT COIL,Outlet,1
 Non-Parent Node Connection,NODE 139,COIL:HEATING:WATER,ZONE EAST PERIMETER SPACE - STORY TOP RHT COIL,Inlet,2
 Non-Parent Node Connection,NODE 140,COIL:HEATING:WATER,ZONE EAST PERIMETER SPACE - STORY TOP RHT COIL,Outlet,2
 Non-Parent Node Connection,ZONE EAST PERIMETER SPACE - STORY TOP VAV TERM DAMPER OUTLET,COIL:HEATING:WATER,ZONE EAST PERIMETER SPACE - STORY TOP RHT COIL,Inlet,1
 Non-Parent Node Connection,NODE 141,COIL:HEATING:WATER,ZONE EAST PERIMETER SPACE - STORY TOP RHT COIL,Outlet,1
 Non-Parent Node Connection,NODE 67,COIL:HEATING:WATER,ZONE NORTH PERIMETER SPACE - STORY GROUND RHT COIL,Inlet,2
 Non-Parent Node Connection,NODE 68,COIL:HEATING:WATER,ZONE NORTH PERIMETER SPACE - STORY GROUND RHT COIL,Outlet,2
 Non-Parent Node Connection,ZONE NORTH PERIMETER SPACE - STORY GROUND VAV TERM DAMPER OUTLET,COIL:HEATING:WATER,ZONE NORTH PERIMETER SPACE - STORY GROUND RHT COIL,Inlet,1
 Non-Parent Node Connection,NODE 69,COIL:HEATING:WATER,ZONE NORTH PERIMETER SPACE - STORY GROUND RHT COIL,Outlet,1
 Non-Parent Node Connection,NODE 94,COIL:HEATING:WATER,ZONE NORTH PERIMETER SPACE - STORY MID RHT COIL,Inlet,2
 Non-Parent Node Connection,NODE 95,COIL:HEATING:WATER,ZONE NORTH PERIMETER SPACE - STORY MID RHT COIL,Outlet,2
 Non-Parent Node Connection,ZONE NORTH PERIMETER SPACE - STORY MID VAV TERM DAMPER OUTLET,COIL:HEATING:WATER,ZONE NORTH PERIMETER SPACE - STORY MID RHT COIL,Inlet,1
 Non-Parent Node Connection,NODE 86,COIL:HEATING:WATER,ZONE NORTH PERIMETER SPACE - STORY MID RHT COIL,Outlet,1
 Non-Parent Node Connection,NODE 130,COIL:HEATING:WATER,ZONE NORTH PERIMETER SPACE - STORY TOP RHT COIL,Inlet,2
 Non-Parent Node Connection,NODE 131,COIL:HEATING:WATER,ZONE NORTH PERIMETER SPACE - STORY TOP RHT COIL,Outlet,2
 Non-Parent Node Connection,ZONE NORTH PERIMETER SPACE - STORY TOP VAV TERM DAMPER OUTLET,COIL:HEATING:WATER,ZONE NORTH PERIMETER SPACE - STORY TOP RHT COIL,Inlet,1
 Non-Parent Node Connection,NODE 122,COIL:HEATING:WATER,ZONE NORTH PERIMETER SPACE - STORY TOP RHT COIL,Outlet,1
 Non-Parent Node Connection,NODE 58,COIL:HEATING:WATER,ZONE SOUTH PERIMETER SPACE - STORY GROUND RHT COIL,Inlet,2
 Non-Parent Node Connection,NODE 59,COIL:HEATING:WATER,ZONE SOUTH PERIMETER SPACE - STORY GROUND RHT COIL,Outlet,2
 Non-Parent Node Connection,ZONE SOUTH PERIMETER SPACE - STORY GROUND VAV TERM DAMPER OUTLET,COIL:HEATING:WATER,ZONE SOUTH PERIMETER SPACE - STORY GROUND RHT COIL,Inlet,1
 Non-Parent Node Connection,NODE 50,COIL:HEATING:WATER,ZONE SOUTH PERIMETER SPACE - STORY GROUND RHT COIL,Outlet,1
 Non-Parent Node Connection,NODE 108,COIL:HEATING:WATER,ZONE SOUTH PERIMETER SPACE - STORY MID RHT COIL,Inlet,2
 Non-Parent Node Connection,NODE 109,COIL:HEATING:WATER,ZONE SOUTH PERIMETER SPACE - STORY MID RHT COIL,Outlet,2
 Non-Parent Node Connection,ZONE SOUTH PERIMETER SPACE - STORY MID VAV TERM DAMPER OUTLET,COIL:HEATING:WATER,ZONE SOUTH PERIMETER SPACE - STORY MID RHT COIL,Inlet,1
 Non-Parent Node Connection,NODE 110,COIL:HEATING:WATER,ZONE SOUTH PERIMETER SPACE - STORY MID RHT COIL,Outlet,1
 Non-Parent Node Connection,NODE 149,COIL:HEATING:WATER,ZONE SOUTH PERIMETER SPACE - STORY TOP RHT COIL,Inlet,2
 Non-Parent Node Connection,NODE 150,COIL:HEATING:WATER,ZONE SOUTH PERIMETER SPACE - STORY TOP RHT COIL,Outlet,2
 Non-Parent Node Connection,ZONE SOUTH PERIMETER SPACE - STORY TOP VAV TERM DAMPER OUTLET,COIL:HEATING:WATER,ZONE SOUTH PERIMETER SPACE - STORY TOP RHT COIL,Inlet,1
 Non-Parent Node Connection,NODE 151,COIL:HEATING:WATER,ZONE SOUTH PERIMETER SPACE - STORY TOP RHT COIL,Outlet,1
 Non-Parent Node Connection,NODE 62,COIL:HEATING:WATER,ZONE WEST PERIMETER SPACE - STORY GROUND RHT COIL,Inlet,2
 Non-Parent Node Connection,NODE 63,COIL:HEATING:WATER,ZONE WEST PERIMETER SPACE - STORY GROUND RHT COIL,Outlet,2
 Non-Parent Node Connection,ZONE WEST PERIMETER SPACE - STORY GROUND VAV TERM DAMPER OUTLET,COIL:HEATING:WATER,ZONE WEST PERIMETER SPACE - STORY GROUND RHT COIL,Inlet,1
 Non-Parent Node Connection,NODE 64,COIL:HEATING:WATER,ZONE WEST PERIMETER SPACE - STORY GROUND RHT COIL,Outlet,1
 Non-Parent Node Connection,NODE 113,COIL:HEATING:WATER,ZONE WEST PERIMETER SPACE - STORY MID RHT COIL,Inlet,2
 Non-Parent Node Connection,NODE 114,COIL:HEATING:WATER,ZONE WEST PERIMETER SPACE - STORY MID RHT COIL,Outlet,2
 Non-Parent Node Connection,ZONE WEST PERIMETER SPACE - STORY MID VAV TERM DAMPER OUTLET,COIL:HEATING:WATER,ZONE WEST PERIMETER SPACE - STORY MID RHT COIL,Inlet,1
 Non-Parent Node Connection,NODE 115,COIL:HEATING:WATER,ZONE WEST PERIMETER SPACE - STORY MID RHT COIL,Outlet,1
 Non-Parent Node Connection,NODE 144,COIL:HEATING:WATER,ZONE WEST PERIMETER SPACE - STORY TOP RHT COIL,Inlet,2
 Non-Parent Node Connection,NODE 145,COIL:HEATING:WATER,ZONE WEST PERIMETER SPACE - STORY TOP RHT COIL,Outlet,2
 Non-Parent Node Connection,ZONE WEST PERIMETER SPACE - STORY TOP VAV TERM DAMPER OUTLET,COIL:HEATING:WATER,ZONE WEST PERIMETER SPACE - STORY TOP RHT COIL,Inlet,1
 Non-Parent Node Connection,NODE 146,COIL:HEATING:WATER,ZONE WEST PERIMETER SPACE - STORY TOP RHT COIL,Outlet,1
 Non-Parent Node Connection,NODE 52,COIL:HEATING:WATER,5 ZONE PVAV MAIN HTG COIL,Inlet,2
 Non-Parent Node Connection,NODE 53,COIL:HEATING:WATER,5 ZONE PVAV MAIN HTG COIL,Outlet,2
 Non-Parent Node Connection,NODE 54,COIL:HEATING:WATER,5 ZONE PVAV MAIN HTG COIL,Inlet,1
 Non-Parent Node Connection,NODE 51,COIL:HEATING:WATER,5 ZONE PVAV MAIN HTG COIL,Outlet,1
 Non-Parent Node Connection,NODE 88,COIL:HEATING:WATER,5 ZONE PVAV 1 MAIN HTG COIL,Inlet,2
 Non-Parent Node Connection,NODE 89,COIL:HEATING:WATER,5 ZONE PVAV 1 MAIN HTG COIL,Outlet,2
 Non-Parent Node Connection,NODE 90,COIL:HEATING:WATER,5 ZONE PVAV 1 MAIN HTG COIL,Inlet,1
 Non-Parent Node Connection,NODE 87,COIL:HEATING:WATER,5 ZONE PVAV 1 MAIN HTG COIL,Outlet,1
 Non-Parent Node Connection,NODE 124,COIL:HEATING:WATER,5 ZONE PVAV 2 MAIN HTG COIL,Inlet,2
 Non-Parent Node Connection,NODE 125,COIL:HEATING:WATER,5 ZONE PVAV 2 MAIN HTG COIL,Outlet,2
 Non-Parent Node Connection,NODE 126,COIL:HEATING:WATER,5 ZONE PVAV 2 MAIN HTG COIL,Inlet,1
 Non-Parent Node Connection,NODE 123,COIL:HEATING:WATER,5 ZONE PVAV 2 MAIN HTG COIL,Outlet,1
 Non-Parent Node Connection,ZONE CORE SPACE - STORY MID VAV TERM DAMPER OUTLET,AIRTERMINAL:SINGLEDUCT:VAV:REHEAT,ZONE CORE SPACE - STORY MID VAV TERM,Outlet,1
 Non-Parent Node Connection,NODE 107,AIRTERMINAL:SINGLEDUCT:VAV:REHEAT,ZONE CORE SPACE - STORY MID VAV TERM,Inlet,1
 Non-Parent Node Connection,ZONE CORE SPACE - STORY TOP VAV TERM DAMPER OUTLET,AIRTERMINAL:SINGLEDUCT:VAV:REHEAT,ZONE CORE SPACE - STORY TOP VAV TERM,Outlet,1
 Non-Parent Node Connection,NODE 138,AIRTERMINAL:SINGLEDUCT:VAV:REHEAT,ZONE CORE SPACE - STORY TOP VAV TERM,Inlet,1
 Non-Parent Node Connection,ZONE EAST PERIMETER SPACE - STORY GROUND VAV TERM DAMPER OUTLET,AIRTERMINAL:SINGLEDUCT:VAV:REHEAT,ZONE EAST PERIMETER SPACE - STORY GROUND VAV TERM,Outlet,1
 Non-Parent Node Connection,NODE 81,AIRTERMINAL:SINGLEDUCT:VAV:REHEAT,ZONE EAST PERIMETER SPACE - STORY GROUND VAV TERM,Inlet,1
 Non-Parent Node Connection,ZONE EAST PERIMETER SPACE - STORY MID VAV TERM DAMPER OUTLET,AIRTERMINAL:SINGLEDUCT:VAV:REHEAT,ZONE EAST PERIMETER SPACE - STORY MID VAV TERM,Outlet,1
 Non-Parent Node Connection,NODE 102,AIRTERMINAL:SINGLEDUCT:VAV:REHEAT,ZONE EAST PERIMETER SPACE - STORY MID VAV TERM,Inlet,1
 Non-Parent Node Connection,ZONE EAST PERIMETER SPACE - STORY TOP VAV TERM DAMPER OUTLET,AIRTERMINAL:SINGLEDUCT:VAV:REHEAT,ZONE EAST PERIMETER SPACE - STORY TOP VAV TERM,Outlet,1
 Non-Parent Node Connection,NODE 143,AIRTERMINAL:SINGLEDUCT:VAV:REHEAT,ZONE EAST PERIMETER SPACE - STORY TOP VAV TERM,Inlet,1
 Non-Parent Node Connection,ZONE NORTH PERIMETER SPACE - STORY GROUND VAV TERM DAMPER OUTLET,AIRTERMINAL:SINGLEDUCT:VAV:REHEAT,ZONE NORTH PERIMETER SPACE - STORY GROUND VAV TERM,Outlet,1
 Non-Parent Node Connection,NODE 71,AIRTERMINAL:SINGLEDUCT:VAV:REHEAT,ZONE NORTH PERIMETER SPACE - STORY GROUND VAV TERM,Inlet,1
 Non-Parent Node Connection,ZONE NORTH PERIMETER SPACE - STORY MID VAV TERM DAMPER OUTLET,AIRTERMINAL:SINGLEDUCT:VAV:REHEAT,ZONE NORTH PERIMETER SPACE - STORY MID VAV TERM,Outlet,1
 Non-Parent Node Connection,NODE 97,AIRTERMINAL:SINGLEDUCT:VAV:REHEAT,ZONE NORTH PERIMETER SPACE - STORY MID VAV TERM,Inlet,1
 Non-Parent Node Connection,ZONE NORTH PERIMETER SPACE - STORY TOP VAV TERM DAMPER OUTLET,AIRTERMINAL:SINGLEDUCT:VAV:REHEAT,ZONE NORTH PERIMETER SPACE - STORY TOP VAV TERM,Outlet,1
 Non-Parent Node Connection,NODE 133,AIRTERMINAL:SINGLEDUCT:VAV:REHEAT,ZONE NORTH PERIMETER SPACE - STORY TOP VAV TERM,Inlet,1
 Non-Parent Node Connection,ZONE SOUTH PERIMETER SPACE - STORY GROUND VAV TERM DAMPER OUTLET,AIRTERMINAL:SINGLEDUCT:VAV:REHEAT,ZONE SOUTH PERIMETER SPACE - STORY GROUND VAV TERM,Outlet,1
 Non-Parent Node Connection,NODE 61,AIRTERMINAL:SINGLEDUCT:VAV:REHEAT,ZONE SOUTH PERIMETER SPACE - STORY GROUND VAV TERM,Inlet,1
 Non-Parent Node Connection,ZONE SOUTH PERIMETER SPACE - STORY MID VAV TERM DAMPER OUTLET,AIRTERMINAL:SINGLEDUCT:VAV:REHEAT,ZONE SOUTH PERIMETER SPACE - STORY MID VAV TERM,Outlet,1
 Non-Parent Node Connection,NODE 112,AIRTERMINAL:SINGLEDUCT:VAV:REHEAT,ZONE SOUTH PERIMETER SPACE - STORY MID VAV TERM,Inlet,1
 Non-Parent Node Connection,ZONE SOUTH PERIMETER SPACE - STORY TOP VAV TERM DAMPER OUTLET,AIRTERMINAL:SINGLEDUCT:VAV:REHEAT,ZONE SOUTH PERIMETER SPACE - STORY TOP VAV TERM,Outlet,1
 Non-Parent Node Connection,NODE 153,AIRTERMINAL:SINGLEDUCT:VAV:REHEAT,ZONE SOUTH PERIMETER SPACE - STORY TOP VAV TERM,Inlet,1
 Non-Parent Node Connection,ZONE WEST PERIMETER SPACE - STORY GROUND VAV TERM DAMPER OUTLET,AIRTERMINAL:SINGLEDUCT:VAV:REHEAT,ZONE WEST PERIMETER SPACE - STORY GROUND VAV TERM,Outlet,1
 Non-Parent Node Connection,NODE 66,AIRTERMINAL:SINGLEDUCT:VAV:REHEAT,ZONE WEST PERIMETER SPACE - STORY GROUND VAV TERM,Inlet,1
 Non-Parent Node Connection,ZONE WEST PERIMETER SPACE - STORY MID VAV TERM DAMPER OUTLET,AIRTERMINAL:SINGLEDUCT:VAV:REHEAT,ZONE WEST PERIMETER SPACE - STORY MID VAV TERM,Outlet,1
 Non-Parent Node Connection,NODE 117,AIRTERMINAL:SINGLEDUCT:VAV:REHEAT,ZONE WEST PERIMETER SPACE - STORY MID VAV TERM,Inlet,1
 Non-Parent Node Connection,ZONE WEST PERIMETER SPACE - STORY TOP VAV TERM DAMPER OUTLET,AIRTERMINAL:SINGLEDUCT:VAV:REHEAT,ZONE WEST PERIMETER SPACE - STORY TOP VAV TERM,Outlet,1
 Non-Parent Node Connection,NODE 148,AIRTERMINAL:SINGLEDUCT:VAV:REHEAT,ZONE WEST PERIMETER SPACE - STORY TOP VAV TERM,Inlet,1
 Non-Parent Node Connection,NODE 49,AIRLOOPHVAC:ZONEMIXER,AIR LOOP HVAC ZONE MIXER 1,Outlet,1
 Non-Parent Node Connection,NODE 60,AIRLOOPHVAC:ZONEMIXER,AIR LOOP HVAC ZONE MIXER 1,Inlet,1
 Non-Parent Node Connection,NODE 65,AIRLOOPHVAC:ZONEMIXER,AIR LOOP HVAC ZONE MIXER 1,Inlet,1
 Non-Parent Node Connection,NODE 70,AIRLOOPHVAC:ZONEMIXER,AIR LOOP HVAC ZONE MIXER 1,Inlet,1
 Non-Parent Node Connection,NODE 75,AIRLOOPHVAC:ZONEMIXER,AIR LOOP HVAC ZONE MIXER 1,Inlet,1
 Non-Parent Node Connection,NODE 80,AIRLOOPHVAC:ZONEMIXER,AIR LOOP HVAC ZONE MIXER 1,Inlet,1
 Non-Parent Node Connection,NODE 85,AIRLOOPHVAC:ZONEMIXER,AIR LOOP HVAC ZONE MIXER 2,Outlet,1
 Non-Parent Node Connection,NODE 96,AIRLOOPHVAC:ZONEMIXER,AIR LOOP HVAC ZONE MIXER 2,Inlet,1
 Non-Parent Node Connection,NODE 101,AIRLOOPHVAC:ZONEMIXER,AIR LOOP HVAC ZONE MIXER 2,Inlet,1
 Non-Parent Node Connection,NODE 106,AIRLOOPHVAC:ZONEMIXER,AIR LOOP HVAC ZONE MIXER 2,Inlet,1
 Non-Parent Node Connection,NODE 111,AIRLOOPHVAC:ZONEMIXER,AIR LOOP HVAC ZONE MIXER 2,Inlet,1
 Non-Parent Node Connection,NODE 116,AIRLOOPHVAC:ZONEMIXER,AIR LOOP HVAC ZONE MIXER 2,Inlet,1
 Non-Parent Node Connection,NODE 121,AIRLOOPHVAC:ZONEMIXER,AIR LOOP HVAC ZONE MIXER 3,Outlet,1
 Non-Parent Node Connection,NODE 132,AIRLOOPHVAC:ZONEMIXER,AIR LOOP HVAC ZONE MIXER 3,Inlet,1
 Non-Parent Node Connection,NODE 137,AIRLOOPHVAC:ZONEMIXER,AIR LOOP HVAC ZONE MIXER 3,Inlet,1
 Non-Parent Node Connection,NODE 142,AIRLOOPHVAC:ZONEMIXER,AIR LOOP HVAC ZONE MIXER 3,Inlet,1
 Non-Parent Node Connection,NODE 147,AIRLOOPHVAC:ZONEMIXER,AIR LOOP HVAC ZONE MIXER 3,Inlet,1
 Non-Parent Node Connection,NODE 152,AIRLOOPHVAC:ZONEMIXER,AIR LOOP HVAC ZONE MIXER 3,Inlet,1
 Non-Parent Node Connection,NODE 57,OUTDOORAIR:MIXER,5 ZONE PVAV OA SYS OUTDOOR AIR MIXER,Outlet,1
 Non-Parent Node Connection,NODE 55,OUTDOORAIR:MIXER,5 ZONE PVAV OA SYS OUTDOOR AIR MIXER,Inlet,1
 Non-Parent Node Connection,NODE 56,OUTDOORAIR:MIXER,5 ZONE PVAV OA SYS OUTDOOR AIR MIXER,ReliefAir,1
 Non-Parent Node Connection,NODE 46,OUTDOORAIR:MIXER,5 ZONE PVAV OA SYS OUTDOOR AIR MIXER,Inlet,1
 Non-Parent Node Connection,NODE 93,OUTDOORAIR:MIXER,5 ZONE PVAV 1 OA SYS OUTDOOR AIR MIXER,Outlet,1
 Non-Parent Node Connection,NODE 91,OUTDOORAIR:MIXER,5 ZONE PVAV 1 OA SYS OUTDOOR AIR MIXER,Inlet,1
 Non-Parent Node Connection,NODE 92,OUTDOORAIR:MIXER,5 ZONE PVAV 1 OA SYS OUTDOOR AIR MIXER,ReliefAir,1
 Non-Parent Node Connection,NODE 82,OUTDOORAIR:MIXER,5 ZONE PVAV 1 OA SYS OUTDOOR AIR MIXER,Inlet,1
 Non-Parent Node Connection,NODE 129,OUTDOORAIR:MIXER,5 ZONE PVAV 2 OA SYS OUTDOOR AIR MIXER,Outlet,1
 Non-Parent Node Connection,NODE 127,OUTDOORAIR:MIXER,5 ZONE PVAV 2 OA SYS OUTDOOR AIR MIXER,Inlet,1
 Non-Parent Node Connection,NODE 128,OUTDOORAIR:MIXER,5 ZONE PVAV 2 OA SYS OUTDOOR AIR MIXER,ReliefAir,1
 Non-Parent Node Connection,NODE 118,OUTDOORAIR:MIXER,5 ZONE PVAV 2 OA SYS OUTDOOR AIR MIXER,Inlet,1
 Non-Parent Node Connection,NODE 51,CONTROLLER:WATERCOIL,CONTROLLER WATER COIL 1,Sensor,1
 Non-Parent Node Connection,NODE 52,CONTROLLER:WATERCOIL,CONTROLLER WATER COIL 1,Actuator,1
 Non-Parent Node Connection,NODE 87,CONTROLLER:WATERCOIL,CONTROLLER WATER COIL 7,Sensor,1
 Non-Parent Node Connection,NODE 88,CONTROLLER:WATERCOIL,CONTROLLER WATER COIL 7,Actuator,1
 Non-Parent Node Connection,NODE 123,CONTROLLER:WATERCOIL,CONTROLLER WATER COIL 13,Sensor,1
 Non-Parent Node Connection,NODE 124,CONTROLLER:WATERCOIL,CONTROLLER WATER COIL 13,Actuator,1
 Non-Parent Node Connection,NODE 51,FAN:VARIABLEVOLUME,5 ZONE PVAV FAN,Inlet,1
 Non-Parent Node Connection,NODE 47,FAN:VARIABLEVOLUME,5 ZONE PVAV FAN,Outlet,1
 Non-Parent Node Connection,NODE 87,FAN:VARIABLEVOLUME,5 ZONE PVAV 1 FAN,Inlet,1
 Non-Parent Node Connection,NODE 83,FAN:VARIABLEVOLUME,5 ZONE PVAV 1 FAN,Outlet,1
 Non-Parent Node Connection,NODE 123,FAN:VARIABLEVOLUME,5 ZONE PVAV 2 FAN,Inlet,1
 Non-Parent Node Connection,NODE 119,FAN:VARIABLEVOLUME,5 ZONE PVAV 2 FAN,Outlet,1
 Non-Parent Node Connection,NODE 57,CONTROLLER:OUTDOORAIR,CONTROLLER OUTDOOR AIR 1,Sensor,1
 Non-Parent Node Connection,NODE 55,CONTROLLER:OUTDOORAIR,CONTROLLER OUTDOOR AIR 1,Actuator,1
 Non-Parent Node Connection,NODE 56,CONTROLLER:OUTDOORAIR,CONTROLLER OUTDOOR AIR 1,Actuator,1
 Non-Parent Node Connection,NODE 46,CONTROLLER:OUTDOORAIR,CONTROLLER OUTDOOR AIR 1,Sensor,1
 Non-Parent Node Connection,NODE 93,CONTROLLER:OUTDOORAIR,CONTROLLER OUTDOOR AIR 2,Sensor,1
 Non-Parent Node Connection,NODE 91,CONTROLLER:OUTDOORAIR,CONTROLLER OUTDOOR AIR 2,Actuator,1
 Non-Parent Node Connection,NODE 92,CONTROLLER:OUTDOORAIR,CONTROLLER OUTDOOR AIR 2,Actuator,1
 Non-Parent Node Connection,NODE 82,CONTROLLER:OUTDOORAIR,CONTROLLER OUTDOOR AIR 2,Sensor,1
 Non-Parent Node Connection,NODE 129,CONTROLLER:OUTDOORAIR,CONTROLLER OUTDOOR AIR 3,Sensor,1
 Non-Parent Node Connection,NODE 127,CONTROLLER:OUTDOORAIR,CONTROLLER OUTDOOR AIR 3,Actuator,1
 Non-Parent Node Connection,NODE 128,CONTROLLER:OUTDOORAIR,CONTROLLER OUTDOOR AIR 3,Actuator,1
 Non-Parent Node Connection,NODE 118,CONTROLLER:OUTDOORAIR,CONTROLLER OUTDOOR AIR 3,Sensor,1
 Non-Parent Node Connection,NODE 57,COIL:COOLING:DX:TWOSPEED,5 ZONE PVAV CLG COIL 487KBTU/HR 6.8EER,Inlet,1
 Non-Parent Node Connection,NODE 54,COIL:COOLING:DX:TWOSPEED,5 ZONE PVAV CLG COIL 487KBTU/HR 6.8EER,Outlet,1
 Non-Parent Node Connection,NODE 93,COIL:COOLING:DX:TWOSPEED,5 ZONE PVAV 1 CLG COIL 488KBTU/HR 6.8EER,Inlet,1
 Non-Parent Node Connection,NODE 90,COIL:COOLING:DX:TWOSPEED,5 ZONE PVAV 1 CLG COIL 488KBTU/HR 6.8EER,Outlet,1
 Non-Parent Node Connection,NODE 129,COIL:COOLING:DX:TWOSPEED,5 ZONE PVAV 2 CLG COIL 517KBTU/HR 6.8EER,Inlet,1
 Non-Parent Node Connection,NODE 126,COIL:COOLING:DX:TWOSPEED,5 ZONE PVAV 2 CLG COIL 517KBTU/HR 6.8EER,Outlet,1
 Non-Parent Node Connection,NODE 34,BOILER:HOTWATER,HOT WATER LOOP BOILER 1115KBTU/HR 0.78 THERMAL EFF,Inlet,1
 Non-Parent Node Connection,NODE 39,BOILER:HOTWATER,HOT WATER LOOP BOILER 1115KBTU/HR 0.78 THERMAL EFF,Outlet,1
 Non-Parent Node Connection,NODE 32,PUMP:VARIABLESPEED,HOT WATER LOOP PUMP,Inlet,1
 Non-Parent Node Connection,NODE 38,PUMP:VARIABLESPEED,HOT WATER LOOP PUMP,Outlet,1
 Non-Parent Node Connection,NODE 16,PUMP:CONSTANTSPEED,SERVICE WATER LOOP PUMP,Inlet,1
 Non-Parent Node Connection,NODE 22,PUMP:CONSTANTSPEED,SERVICE WATER LOOP PUMP,Outlet,1
