Program Version,EnergyPlus, Version 8.7.0-df3c0af5a5, YMD=2017.09.06 14:52
! <Version>, Version ID
 Version, 8.7
! <Timesteps per Hour>, #TimeSteps, Minutes per TimeStep {minutes}
 Timesteps per Hour,  6, 10
! <System Convergence Limits>, Minimum System TimeStep {minutes}, Max HVAC Iterations, Minimum Plant Iterations, Maximum Plant Iterations
 System Convergence Limits, 1, 20, 2, 8
! <Simulation Control>, Do Zone Sizing, Do System Sizing, Do Plant Sizing, Do Design Days, Do Weather Simulation, Do HVAC Sizing Simulation
 Simulation Control, Yes, Yes, No, Yes, Yes, No
! <Output Reporting Tolerances>, Tolerance for Time Heating Setpoint Not Met, Tolerance for Zone Cooling Setpoint Not Met Time
 Output Reporting Tolerances, 0.200, 0.200, 
! <Site:GroundTemperature:BuildingSurface>,Jan{C},Feb{C},Mar{C},Apr{C},May{C},Jun{C},Jul{C},Aug{C},Sep{C},Oct{C},Nov{C},Dec{C}
 Site:GroundTemperature:BuildingSurface,  18.00,  18.00,  18.00,  18.00,  18.00,  18.00,  18.00,  18.00,  18.00,  18.00,  18.00,  18.00
! <Site:GroundTemperature:FCfactorMethod>,Jan{C},Feb{C},Mar{C},Apr{C},May{C},Jun{C},Jul{C},Aug{C},Sep{C},Oct{C},Nov{C},Dec{C}
 Site:GroundTemperature:FCfactorMethod,  10.94,  10.63,  11.18,  12.06,  14.33,  16.09,  17.28,  17.64,  17.02,  15.66,  13.83,  12.14
! <Site:GroundTemperature:Shallow>,Jan{C},Feb{C},Mar{C},Apr{C},May{C},Jun{C},Jul{C},Aug{C},Sep{C},Oct{C},Nov{C},Dec{C}
 Site:GroundTemperature:Shallow,  13.00,  13.00,  13.00,  13.00,  13.00,  13.00,  13.00,  13.00,  13.00,  13.00,  13.00,  13.00
! <Site:GroundTemperature:Deep>,Jan{C},Feb{C},Mar{C},Apr{C},May{C},Jun{C},Jul{C},Aug{C},Sep{C},Oct{C},Nov{C},Dec{C}
 Site:GroundTemperature:Deep,  16.00,  16.00,  16.00,  16.00,  16.00,  16.00,  16.00,  16.00,  16.00,  16.00,  16.00,  16.00
! <Site:GroundReflectance>,Jan{dimensionless},Feb{dimensionless},Mar{dimensionless},Apr{dimensionless},May{dimensionless},Jun{dimensionless},Jul{dimensionless},Aug{dimensionless},Sep{dimensionless},Oct{dimensionless},Nov{dimensionless},Dec{dimensionless}
 Site:GroundReflectance,  0.20,  0.20,  0.20,  0.20,  0.20,  0.20,  0.20,  0.20,  0.20,  0.20,  0.20,  0.20
! <Site:GroundReflectance:SnowModifier>, Normal, Daylighting {dimensionless}
 Site:GroundReflectance:SnowModifier,   1.000,   1.000
! <Site:GroundReflectance:Snow>,Jan{dimensionless},Feb{dimensionless},Mar{dimensionless},Apr{dimensionless},May{dimensionless},Jun{dimensionless},Jul{dimensionless},Aug{dimensionless},Sep{dimensionless},Oct{dimensionless},Nov{dimensionless},Dec{dimensionless}
 Site:GroundReflectance:Snow,  0.20,  0.20,  0.20,  0.20,  0.20,  0.20,  0.20,  0.20,  0.20,  0.20,  0.20,  0.20
! <Site:GroundReflectance:Snow:Daylighting>,Jan{dimensionless},Feb{dimensionless},Mar{dimensionless},Apr{dimensionless},May{dimensionless},Jun{dimensionless},Jul{dimensionless},Aug{dimensionless},Sep{dimensionless},Oct{dimensionless},Nov{dimensionless},Dec{dimensionless}
 Site:GroundReflectance:Snow:Daylighting,  0.20,  0.20,  0.20,  0.20,  0.20,  0.20,  0.20,  0.20,  0.20,  0.20,  0.20,  0.20
! <Environment:Weather Station>,Wind Sensor Height Above Ground {m},Wind Speed Profile Exponent {},Wind Speed Profile Boundary Layer Thickness {m},Air Temperature Sensor Height Above Ground {m},Wind Speed Modifier Coefficient-Internal,Temperature Modifier Coefficient-Internal
Environment:Weather Station,10.000,0.140,270.000,1.500,1.586,9.750E-003
! <Site:Location>, Location Name, Latitude {N+/S- Deg}, Longitude {E+/W- Deg},  Time Zone Number {GMT+/-}, Elevation {m},  Standard Pressure at Elevation {Pa}, Standard RhoAir at Elevation
Site:Location,Climate Zone 3 CA USA CTZRV2 WMO#=724930,37.70,-122.20,-8.00,2.00,101301,1.2040
! <Building Information>, Building Name,North Axis {deg},Terrain,  Loads Convergence Tolerance Value,Temperature Convergence Tolerance Value,  Solar Distribution,Maximum Number of Warmup Days,Minimum Number of Warmup Days
 Building Information,CEC T24 2001|RetailStandalone,0.000,Suburbs,4.00000E-002,0.40000,FullExterior,25,6
! <Inside Convection Algorithm>, Algorithm {Simple | TARP | CeilingDiffuser | AdaptiveConvectionAlgorithm}
Inside Convection Algorithm,TARP
! <Outside Convection Algorithm>, Algorithm {SimpleCombined | TARP | MoWitt | DOE-2 | AdaptiveConvectionAlgorithm}
Outside Convection Algorithm,DOE-2
! <Sky Radiance Distribution>, Value {Anisotropic}
Sky Radiance Distribution,Anisotropic
! <Zone Air Solution Algorithm>, Value {ThirdOrderBackwardDifference | AnalyticalSolution | EulerMethod}
 Zone Air Solution Algorithm, ThirdOrderBackwardDifference
! <Zone Air Carbon Dioxide Balance Simulation>, Simulation {Yes/No}, Carbon Dioxide Concentration
 Zone Air Carbon Dioxide Balance Simulation, No,N/A
! <Zone Air Generic Contaminant Balance Simulation>, Simulation {Yes/No}, Generic Contaminant Concentration
 Zone Air Generic Contaminant Balance Simulation, No,N/A
! <Zone Air Mass Flow Balance Simulation>, Enforce Mass Balance, Adjust Zone Mixing, Adjust Zone Infiltration {AddInfiltration | AdjustInfiltration | None}, Infiltration Zones {MixingSourceZonesOnly | AllZones}
 Zone Air Mass Flow Balance Simulation, No,N/A,N/A,N/A
! <Environment:Site Atmospheric Variation>,Wind Speed Profile Exponent {},Wind Speed Profile Boundary Layer Thickness {m},Air Temperature Gradient Coefficient {K/m}
Environment:Site Atmospheric Variation,0.220,370.000,6.500000E-003
! <Surface Geometry>,Starting Corner,Vertex Input Direction,Coordinate System,Daylight Reference Point Coordinate System,Rectangular (Simple) Surface Coordinate System
 Surface Geometry,UpperLeftCorner,Counterclockwise,RelativeCoordinateSystem,RelativeCoordinateSystem,RelativeToZoneOrigin
! <Surface Heat Transfer Algorithm>, Value {CTF - ConductionTransferFunction | EMPD - MoisturePenetrationDepthConductionTransferFunction | CondFD - ConductionFiniteDifference | HAMT - CombinedHeatAndMoistureFiniteElement} - Description,Inside Surface Max Temperature Limit{C}, Surface Convection Coefficient Lower Limit {W/m2-K}, Surface Convection Coefficient Upper Limit {W/m2-K}
Surface Heat Transfer Algorithm, CTF - ConductionTransferFunction,200,0.10,1000.0
! <Shading Summary>, Number of Fixed Detached Shades, Number of Building Detached Shades, Number of Attached Shades
 Shading Summary,0,0,0
! <Zone Summary>, Number of Zones, Number of Zone Surfaces, Number of SubSurfaces
 Zone Summary,18,126,18
! <Zone Information>,Zone Name,North Axis {deg},Origin X-Coordinate {m},Origin Y-Coordinate {m},Origin Z-Coordinate {m},Centroid X-Coordinate {m},Centroid Y-Coordinate {m},Centroid Z-Coordinate {m},Type,Zone Multiplier,Zone List Multiplier,Minimum X {m},Maximum X {m},Minimum Y {m},Maximum Y {m},Minimum Z {m},Maximum Z {m},Ceiling Height {m},Volume {m3},Zone Inside Convection Algorithm {Simple-Detailed-CeilingDiffuser-TrombeWall},Zone Outside Convection Algorithm {Simple-Detailed-Tarp-MoWitt-DOE-2-BLAST}, Floor Area {m2},Exterior Gross Wall Area {m2},Exterior Net Wall Area {m2},Exterior Window Area {m2}, Number of Surfaces, Number of SubSurfaces, Number of Shading SubSurfaces,  Part of Total Building Area
 Zone Information, ZONE RETAIL BACK_SPACE A  - STORY GROUND,0.0,30.39,-35.50,0.00,35.63,-33.21,3.05,1,1,1,30.39,40.87,-35.50,-30.93,0.00,6.10,6.10,292.02,TARP,DOE-2,47.90,63.87,59.40,4.47,6,1,0,Yes
 Zone Information, ZONE RETAIL BACK_SPACE A END_B - STORY GROUND,0.0,40.87,-35.50,0.00,43.15,-33.21,3.05,1,1,1,40.87,45.44,-35.50,-30.93,0.00,6.10,6.10,127.43,TARP,DOE-2,20.90,55.74,51.84,3.90,6,2,0,Yes
 Zone Information, ZONE RETAIL BACK_SPACE B  - STORY GROUND,0.0,30.39,-30.93,0.00,35.63,1.57E-014,3.05,1,1,1,30.39,40.87,-30.93,30.93,0.00,6.10,6.10,3950.74,TARP,DOE-2,648.09,0.00,0.00,0.00,6,0,0,Yes
 Zone Information, ZONE RETAIL BACK_SPACE B END_B - STORY GROUND,0.0,40.87,-30.93,0.00,43.15,1.57E-014,3.05,1,1,1,40.87,45.44,-30.93,30.93,0.00,6.10,6.10,1723.96,TARP,DOE-2,282.80,377.07,350.67,26.39,6,1,0,Yes
 Zone Information, ZONE RETAIL BACK_SPACE C  - STORY GROUND,0.0,30.39,30.93,0.00,35.63,33.21,3.05,1,1,1,30.39,40.87,30.93,35.50,0.00,6.10,6.10,292.02,TARP,DOE-2,47.90,63.87,59.40,4.47,6,1,0,Yes
 Zone Information, ZONE RETAIL BACK_SPACE C END_B - STORY GROUND,0.0,40.87,30.93,0.00,43.15,33.21,3.05,1,1,1,40.87,45.44,30.93,35.50,0.00,6.10,6.10,127.43,TARP,DOE-2,20.90,55.74,51.84,3.90,6,2,0,Yes
 Zone Information, ZONE RETAIL ENTRY A  - STORY GROUND,0.0,23.95,-35.50,0.00,24.18,-33.21,3.05,1,1,1,23.95,24.42,-35.50,-30.93,0.00,6.10,6.10,13.17,TARP,DOE-2,2.16,2.88,2.68,0.20,6,1,0,Yes
 Zone Information, ZONE RETAIL ENTRY B  - STORY GROUND,0.0,23.95,-30.93,0.00,24.18,1.60E-014,3.05,1,1,1,23.95,24.42,-30.93,30.93,0.00,6.10,6.10,178.19,TARP,DOE-2,29.23,0.00,0.00,0.00,6,0,0,Yes
 Zone Information, ZONE RETAIL ENTRY C  - STORY GROUND,0.0,23.95,30.93,0.00,24.18,33.21,3.05,1,1,1,23.95,24.42,30.93,35.50,0.00,6.10,6.10,13.17,TARP,DOE-2,2.16,2.88,2.68,0.20,6,1,0,Yes
 Zone Information, ZONE RETAIL POINT_OF_SALE A  - STORY GROUND,0.0,24.42,-35.50,0.00,27.40,-33.21,3.05,1,1,1,24.42,30.39,-35.50,-30.93,0.00,6.10,6.10,166.41,TARP,DOE-2,27.30,36.40,33.85,2.55,6,1,0,Yes
 Zone Information, ZONE RETAIL POINT_OF_SALE B  - STORY GROUND,0.0,24.42,-30.93,0.00,27.40,1.54E-014,3.05,1,1,1,24.42,30.39,-30.93,30.93,0.00,6.10,6.10,2251.37,TARP,DOE-2,369.32,0.00,0.00,0.00,6,0,0,Yes
 Zone Information, ZONE RETAIL POINT_OF_SALE C  - STORY GROUND,0.0,24.42,30.93,0.00,27.40,33.21,3.05,1,1,1,24.42,30.39,30.93,35.50,0.00,6.10,6.10,166.41,TARP,DOE-2,27.30,36.40,33.85,2.55,6,1,0,Yes
 Zone Information, ZONE RETAIL RETAIL A  - STORY GROUND,0.0,-40.87,-35.50,0.00,-8.46,-33.21,3.05,1,1,1,-40.87,23.95,-35.50,-30.93,0.00,6.10,6.10,1806.42,TARP,DOE-2,296.33,395.11,367.45,27.66,6,1,0,Yes
 Zone Information, ZONE RETAIL RETAIL A END_A - STORY GROUND,0.0,-45.44,-35.50,0.00,-43.15,-33.21,3.05,1,1,1,-45.44,-40.87,-35.50,-30.93,0.00,6.10,6.10,127.43,TARP,DOE-2,20.90,55.74,51.84,3.90,6,2,0,Yes
 Zone Information, ZONE RETAIL RETAIL B  - STORY GROUND,0.0,-40.87,-30.93,0.00,-8.46,1.59E-014,3.05,1,1,1,-40.87,23.95,-30.93,30.93,0.00,6.10,6.10,24439.27,TARP,DOE-2,4009.07,0.00,0.00,0.00,6,0,0,Yes
 Zone Information, ZONE RETAIL RETAIL B END_A - STORY GROUND,0.0,-45.44,-30.93,0.00,-43.15,1.61E-014,3.05,1,1,1,-45.44,-40.87,-30.93,30.93,0.00,6.10,6.10,1723.96,TARP,DOE-2,282.80,377.07,350.67,26.39,6,1,0,Yes
 Zone Information, ZONE RETAIL RETAIL C  - STORY GROUND,0.0,-40.87,30.93,0.00,-8.46,33.21,3.05,1,1,1,-40.87,23.95,30.93,35.50,0.00,6.10,6.10,1806.42,TARP,DOE-2,296.33,395.11,367.45,27.66,6,1,0,Yes
 Zone Information, ZONE RETAIL RETAIL C END_A - STORY GROUND,0.0,-45.44,30.93,0.00,-43.15,33.21,3.05,1,1,1,-45.44,-40.87,30.93,35.50,0.00,6.10,6.10,127.43,TARP,DOE-2,20.90,55.74,51.84,3.90,6,2,0,Yes
! <Zone Internal Gains Nominal>,Zone Name, Floor Area {m2},# Occupants,Area per Occupant {m2/person},Occupant per Area {person/m2},Interior Lighting {W/m2},Electric Load {W/m2},Gas Load {W/m2},Other Load {W/m2},Hot Water Eq {W/m2},Steam Equipment {W/m2},Sum Loads per Area {W/m2},Outdoor Controlled Baseboard Heat
 Zone Internal Gains Nominal, ZONE RETAIL BACK_SPACE A  - STORY GROUND,47.90,1.5,30.968,3.229E-002,9.472,2.153,0.000,0.000,0.000,0.000,11.625,No
 Zone Internal Gains Nominal, ZONE RETAIL BACK_SPACE A END_B - STORY GROUND,20.90,0.7,30.968,3.229E-002,9.472,2.153,0.000,0.000,0.000,0.000,11.625,No
 Zone Internal Gains Nominal, ZONE RETAIL BACK_SPACE B  - STORY GROUND,648.09,20.9,30.968,3.229E-002,9.472,2.153,0.000,0.000,0.000,0.000,11.625,No
 Zone Internal Gains Nominal, ZONE RETAIL BACK_SPACE B END_B - STORY GROUND,282.80,9.1,30.968,3.229E-002,9.472,2.153,0.000,0.000,0.000,0.000,11.625,No
 Zone Internal Gains Nominal, ZONE RETAIL BACK_SPACE C  - STORY GROUND,47.90,1.5,30.968,3.229E-002,9.472,2.153,0.000,0.000,0.000,0.000,11.625,No
 Zone Internal Gains Nominal, ZONE RETAIL BACK_SPACE C END_B - STORY GROUND,20.90,0.7,30.968,3.229E-002,9.472,2.153,0.000,0.000,0.000,0.000,11.625,No
 Zone Internal Gains Nominal, ZONE RETAIL ENTRY A  - STORY GROUND,2.16,0.8,2.814,0.355,36.167,10.764,0.000,0.000,0.000,0.000,46.931,No
 Zone Internal Gains Nominal, ZONE RETAIL ENTRY B  - STORY GROUND,29.23,10.4,2.814,0.355,36.167,10.764,0.000,0.000,0.000,0.000,46.931,No
 Zone Internal Gains Nominal, ZONE RETAIL ENTRY C  - STORY GROUND,2.16,0.8,2.814,0.355,36.167,10.764,0.000,0.000,0.000,0.000,46.931,No
 Zone Internal Gains Nominal, ZONE RETAIL POINT_OF_SALE A  - STORY GROUND,27.30,9.7,2.814,0.355,36.167,10.764,0.000,0.000,0.000,0.000,46.931,No
 Zone Internal Gains Nominal, ZONE RETAIL POINT_OF_SALE B  - STORY GROUND,369.32,131.2,2.814,0.355,36.167,10.764,0.000,0.000,0.000,0.000,46.931,No
 Zone Internal Gains Nominal, ZONE RETAIL POINT_OF_SALE C  - STORY GROUND,27.30,9.7,2.814,0.355,36.167,10.764,0.000,0.000,0.000,0.000,46.931,No
 Zone Internal Gains Nominal, ZONE RETAIL RETAIL A  - STORY GROUND,296.33,105.3,2.814,0.355,36.167,10.764,0.000,0.000,0.000,0.000,46.931,No
 Zone Internal Gains Nominal, ZONE RETAIL RETAIL A END_A - STORY GROUND,20.90,7.4,2.814,0.355,36.167,10.764,0.000,0.000,0.000,0.000,46.931,No
 Zone Internal Gains Nominal, ZONE RETAIL RETAIL B  - STORY GROUND,4009.07,1424.5,2.814,0.355,36.167,10.764,0.000,0.000,0.000,0.000,46.931,No
 Zone Internal Gains Nominal, ZONE RETAIL RETAIL B END_A - STORY GROUND,282.80,100.5,2.814,0.355,36.167,10.764,0.000,0.000,0.000,0.000,46.931,No
 Zone Internal Gains Nominal, ZONE RETAIL RETAIL C  - STORY GROUND,296.33,105.3,2.814,0.355,36.167,10.764,0.000,0.000,0.000,0.000,46.931,No
 Zone Internal Gains Nominal, ZONE RETAIL RETAIL C END_A - STORY GROUND,20.90,7.4,2.814,0.355,36.167,10.764,0.000,0.000,0.000,0.000,46.931,No
! <People Internal Gains Nominal>,Name,Schedule Name,Zone Name,Zone Floor Area {m2},# Zone Occupants,Number of People {},People/Floor Area {person/m2},Floor Area per person {m2/person},Fraction Radiant,Fraction Convected,Sensible Fraction Calculation,Activity level,ASHRAE 55 Warnings,Carbon Dioxide Generation Rate,Nominal Minimum Number of People,Nominal Maximum Number of People
 People Internal Gains Nominal, ZONE RETAIL BACK_SPACE A  - STORY GROUND RETAIL BACK_SPACE PEOPLE,RETAILOCCUPANCY,ZONE RETAIL BACK_SPACE A  - STORY GROUND,47.90,1.5,1.5,3.229E-002,30.968,0.300,0.700,AutoCalculate,RETAILPEOPLEACTIVITYLEVEL,No,3.8200E-008,0,2
 People Internal Gains Nominal, ZONE RETAIL BACK_SPACE A END_B - STORY GROUND RETAIL BACK_SPACE PEOPLE,RETAILOCCUPANCY,ZONE RETAIL BACK_SPACE A END_B - STORY GROUND,20.90,0.7,0.7,3.229E-002,30.968,0.300,0.700,AutoCalculate,RETAILPEOPLEACTIVITYLEVEL,No,3.8200E-008,0,1
 People Internal Gains Nominal, ZONE RETAIL BACK_SPACE B  - STORY GROUND RETAIL BACK_SPACE PEOPLE,RETAILOCCUPANCY,ZONE RETAIL BACK_SPACE B  - STORY GROUND,648.09,20.9,20.9,3.229E-002,30.968,0.300,0.700,AutoCalculate,RETAILPEOPLEACTIVITYLEVEL,No,3.8200E-008,0,21
 People Internal Gains Nominal, ZONE RETAIL BACK_SPACE B END_B - STORY GROUND RETAIL BACK_SPACE PEOPLE,RETAILOCCUPANCY,ZONE RETAIL BACK_SPACE B END_B - STORY GROUND,282.80,9.1,9.1,3.229E-002,30.968,0.300,0.700,AutoCalculate,RETAILPEOPLEACTIVITYLEVEL,No,3.8200E-008,0,9
 People Internal Gains Nominal, ZONE RETAIL BACK_SPACE C  - STORY GROUND RETAIL BACK_SPACE PEOPLE,RETAILOCCUPANCY,ZONE RETAIL BACK_SPACE C  - STORY GROUND,47.90,1.5,1.5,3.229E-002,30.968,0.300,0.700,AutoCalculate,RETAILPEOPLEACTIVITYLEVEL,No,3.8200E-008,0,2
 People Internal Gains Nominal, ZONE RETAIL BACK_SPACE C END_B - STORY GROUND RETAIL BACK_SPACE PEOPLE,RETAILOCCUPANCY,ZONE RETAIL BACK_SPACE C END_B - STORY GROUND,20.90,0.7,0.7,3.229E-002,30.968,0.300,0.700,AutoCalculate,RETAILPEOPLEACTIVITYLEVEL,No,3.8200E-008,0,1
 People Internal Gains Nominal, ZONE RETAIL ENTRY A  - STORY GROUND RETAIL ENTRY PEOPLE,RETAILOCCUPANCY,ZONE RETAIL ENTRY A  - STORY GROUND,2.16,0.8,0.8,0.355,2.814,0.300,0.700,AutoCalculate,RETAILPEOPLEACTIVITYLEVEL,No,3.8200E-008,0,1
 People Internal Gains Nominal, ZONE RETAIL ENTRY B  - STORY GROUND RETAIL ENTRY PEOPLE,RETAILOCCUPANCY,ZONE RETAIL ENTRY B  - STORY GROUND,29.23,10.4,10.4,0.355,2.814,0.300,0.700,AutoCalculate,RETAILPEOPLEACTIVITYLEVEL,No,3.8200E-008,0,10
 People Internal Gains Nominal, ZONE RETAIL ENTRY C  - STORY GROUND RETAIL ENTRY PEOPLE,RETAILOCCUPANCY,ZONE RETAIL ENTRY C  - STORY GROUND,2.16,0.8,0.8,0.355,2.814,0.300,0.700,AutoCalculate,RETAILPEOPLEACTIVITYLEVEL,No,3.8200E-008,0,1
 People Internal Gains Nominal, ZONE RETAIL POINT_OF_SALE A  - STORY GROUND RETAIL POINT_OF_SALE PEOPLE,RETAILOCCUPANCY,ZONE RETAIL POINT_OF_SALE A  - STORY GROUND,27.30,9.7,9.7,0.355,2.814,0.300,0.700,AutoCalculate,RETAILPEOPLEACTIVITYLEVEL,No,3.8200E-008,0,10
 People Internal Gains Nominal, ZONE RETAIL POINT_OF_SALE B  - STORY GROUND RETAIL POINT_OF_SALE PEOPLE,RETAILOCCUPANCY,ZONE RETAIL POINT_OF_SALE B  - STORY GROUND,369.32,131.2,131.2,0.355,2.814,0.300,0.700,AutoCalculate,RETAILPEOPLEACTIVITYLEVEL,No,3.8200E-008,0,131
 People Internal Gains Nominal, ZONE RETAIL POINT_OF_SALE C  - STORY GROUND RETAIL POINT_OF_SALE PEOPLE,RETAILOCCUPANCY,ZONE RETAIL POINT_OF_SALE C  - STORY GROUND,27.30,9.7,9.7,0.355,2.814,0.300,0.700,AutoCalculate,RETAILPEOPLEACTIVITYLEVEL,No,3.8200E-008,0,10
 People Internal Gains Nominal, ZONE RETAIL RETAIL A  - STORY GROUND RETAIL RETAIL PEOPLE,RETAILOCCUPANCY,ZONE RETAIL RETAIL A  - STORY GROUND,296.33,105.3,105.3,0.355,2.814,0.300,0.700,AutoCalculate,RETAILPEOPLEACTIVITYLEVEL,No,3.8200E-008,0,105
 People Internal Gains Nominal, ZONE RETAIL RETAIL A END_A - STORY GROUND RETAIL RETAIL PEOPLE,RETAILOCCUPANCY,ZONE RETAIL RETAIL A END_A - STORY GROUND,20.90,7.4,7.4,0.355,2.814,0.300,0.700,AutoCalculate,RETAILPEOPLEACTIVITYLEVEL,No,3.8200E-008,0,7
 People Internal Gains Nominal, ZONE RETAIL RETAIL B  - STORY GROUND RETAIL RETAIL PEOPLE,RETAILOCCUPANCY,ZONE RETAIL RETAIL B  - STORY GROUND,4009.07,1424.5,1424.5,0.355,2.814,0.300,0.700,AutoCalculate,RETAILPEOPLEACTIVITYLEVEL,No,3.8200E-008,0,1424
 People Internal Gains Nominal, ZONE RETAIL RETAIL B END_A - STORY GROUND RETAIL RETAIL PEOPLE,RETAILOCCUPANCY,ZONE RETAIL RETAIL B END_A - STORY GROUND,282.80,100.5,100.5,0.355,2.814,0.300,0.700,AutoCalculate,RETAILPEOPLEACTIVITYLEVEL,No,3.8200E-008,0,100
 People Internal Gains Nominal, ZONE RETAIL RETAIL C  - STORY GROUND RETAIL RETAIL PEOPLE,RETAILOCCUPANCY,ZONE RETAIL RETAIL C  - STORY GROUND,296.33,105.3,105.3,0.355,2.814,0.300,0.700,AutoCalculate,RETAILPEOPLEACTIVITYLEVEL,No,3.8200E-008,0,105
 People Internal Gains Nominal, ZONE RETAIL RETAIL C END_A - STORY GROUND RETAIL RETAIL PEOPLE,RETAILOCCUPANCY,ZONE RETAIL RETAIL C END_A - STORY GROUND,20.90,7.4,7.4,0.355,2.814,0.300,0.700,AutoCalculate,RETAILPEOPLEACTIVITYLEVEL,No,3.8200E-008,0,7
! <Lights Internal Gains Nominal>,Name,Schedule Name,Zone Name,Zone Floor Area {m2},# Zone Occupants,Lighting Level {W},Lights/Floor Area {W/m2},Lights per person {W/person},Fraction Return Air,Fraction Radiant,Fraction Short Wave,Fraction Convected,Fraction Replaceable,End-Use Category,Nominal Minimum Lighting Level {W},Nominal Maximum Lighting Level {W}
 Lights Internal Gains Nominal, ZONE RETAIL BACK_SPACE A  - STORY GROUND RETAIL BACK_SPACE LIGHTS,RETAILLIGHTS,ZONE RETAIL BACK_SPACE A  - STORY GROUND,47.90,1.5,453.751,9.472,293.333,0.000,0.700,0.200,0.100,1.000,General,0.000,453.751
 Lights Internal Gains Nominal, ZONE RETAIL BACK_SPACE A END_B - STORY GROUND RETAIL BACK_SPACE LIGHTS,RETAILLIGHTS,ZONE RETAIL BACK_SPACE A END_B - STORY GROUND,20.90,0.7,198.000,9.472,293.333,0.000,0.700,0.200,0.100,1.000,General,0.000,198.000
 Lights Internal Gains Nominal, ZONE RETAIL BACK_SPACE B  - STORY GROUND RETAIL BACK_SPACE LIGHTS,RETAILLIGHTS,ZONE RETAIL BACK_SPACE B  - STORY GROUND,648.09,20.9,6138.839,9.472,293.333,0.000,0.700,0.200,0.100,1.000,General,0.000,6138.839
 Lights Internal Gains Nominal, ZONE RETAIL BACK_SPACE B END_B - STORY GROUND RETAIL BACK_SPACE LIGHTS,RETAILLIGHTS,ZONE RETAIL BACK_SPACE B END_B - STORY GROUND,282.80,9.1,2678.761,9.472,293.333,0.000,0.700,0.200,0.100,1.000,General,0.000,2678.761
 Lights Internal Gains Nominal, ZONE RETAIL BACK_SPACE C  - STORY GROUND RETAIL BACK_SPACE LIGHTS,RETAILLIGHTS,ZONE RETAIL BACK_SPACE C  - STORY GROUND,47.90,1.5,453.751,9.472,293.333,0.000,0.700,0.200,0.100,1.000,General,0.000,453.751
 Lights Internal Gains Nominal, ZONE RETAIL BACK_SPACE C END_B - STORY GROUND RETAIL BACK_SPACE LIGHTS,RETAILLIGHTS,ZONE RETAIL BACK_SPACE C END_B - STORY GROUND,20.90,0.7,198.000,9.472,293.333,0.000,0.700,0.200,0.100,1.000,General,0.000,198.000
 Lights Internal Gains Nominal, ZONE RETAIL ENTRY A  - STORY GROUND RETAIL ENTRY LIGHTS,RETAILLIGHTS,ZONE RETAIL ENTRY A  - STORY GROUND,2.16,0.8,78.141,36.167,101.787,0.000,0.700,0.200,0.100,1.000,General,0.000,78.141
 Lights Internal Gains Nominal, ZONE RETAIL ENTRY B  - STORY GROUND RETAIL ENTRY LIGHTS,RETAILLIGHTS,ZONE RETAIL ENTRY B  - STORY GROUND,29.23,10.4,1057.183,36.167,101.787,0.000,0.700,0.200,0.100,1.000,General,0.000,1057.183
 Lights Internal Gains Nominal, ZONE RETAIL ENTRY C  - STORY GROUND RETAIL ENTRY LIGHTS,RETAILLIGHTS,ZONE RETAIL ENTRY C  - STORY GROUND,2.16,0.8,78.141,36.167,101.787,0.000,0.700,0.200,0.100,1.000,General,0.000,78.141
 Lights Internal Gains Nominal, ZONE RETAIL POINT_OF_SALE A  - STORY GROUND RETAIL POINT_OF_SALE LIGHTS,RETAILLIGHTS,ZONE RETAIL POINT_OF_SALE A  - STORY GROUND,27.30,9.7,987.287,36.167,101.787,0.000,0.700,0.200,0.100,1.000,General,0.000,987.287
 Lights Internal Gains Nominal, ZONE RETAIL POINT_OF_SALE B  - STORY GROUND RETAIL POINT_OF_SALE LIGHTS,RETAILLIGHTS,ZONE RETAIL POINT_OF_SALE B  - STORY GROUND,369.32,131.2,13357.095,36.167,101.787,0.000,0.700,0.200,0.100,1.000,General,0.000,13357.095
 Lights Internal Gains Nominal, ZONE RETAIL POINT_OF_SALE C  - STORY GROUND RETAIL POINT_OF_SALE LIGHTS,RETAILLIGHTS,ZONE RETAIL POINT_OF_SALE C  - STORY GROUND,27.30,9.7,987.287,36.167,101.787,0.000,0.700,0.200,0.100,1.000,General,0.000,987.287
 Lights Internal Gains Nominal, ZONE RETAIL RETAIL A  - STORY GROUND RETAIL RETAIL LIGHTS,RETAILLIGHTS,ZONE RETAIL RETAIL A  - STORY GROUND,296.33,105.3,10717.263,36.167,101.787,0.000,0.700,0.200,0.100,1.000,General,0.000,10717.263
 Lights Internal Gains Nominal, ZONE RETAIL RETAIL A END_A - STORY GROUND RETAIL RETAIL LIGHTS,RETAILLIGHTS,ZONE RETAIL RETAIL A END_A - STORY GROUND,20.90,7.4,756.000,36.167,101.787,0.000,0.700,0.200,0.100,1.000,General,0.000,756.000
 Lights Internal Gains Nominal, ZONE RETAIL RETAIL B  - STORY GROUND RETAIL RETAIL LIGHTS,RETAILLIGHTS,ZONE RETAIL RETAIL B  - STORY GROUND,4009.07,1424.5,144994.862,36.167,101.787,0.000,0.700,0.200,0.100,1.000,General,0.000,144994.862
 Lights Internal Gains Nominal, ZONE RETAIL RETAIL B END_A - STORY GROUND RETAIL RETAIL LIGHTS,RETAILLIGHTS,ZONE RETAIL RETAIL B END_A - STORY GROUND,282.80,100.5,10227.995,36.167,101.787,0.000,0.700,0.200,0.100,1.000,General,0.000,10227.995
 Lights Internal Gains Nominal, ZONE RETAIL RETAIL C  - STORY GROUND RETAIL RETAIL LIGHTS,RETAILLIGHTS,ZONE RETAIL RETAIL C  - STORY GROUND,296.33,105.3,10717.263,36.167,101.787,0.000,0.700,0.200,0.100,1.000,General,0.000,10717.263
 Lights Internal Gains Nominal, ZONE RETAIL RETAIL C END_A - STORY GROUND RETAIL RETAIL LIGHTS,RETAILLIGHTS,ZONE RETAIL RETAIL C END_A - STORY GROUND,20.90,7.4,756.000,36.167,101.787,0.000,0.700,0.200,0.100,1.000,General,0.000,756.000
! <ElectricEquipment Internal Gains Nominal>,Name,Schedule Name,Zone Name,Zone Floor Area {m2},# Zone Occupants,Equipment Level {W},Equipment/Floor Area {W/m2},Equipment per person {W/person},Fraction Latent,Fraction Radiant,Fraction Lost,Fraction Convected,End-Use SubCategory,Nominal Minimum Equipment Level {W},Nominal Maximum Equipment Level {W}
 ElectricEquipment Internal Gains Nominal, ZONE RETAIL BACK_SPACE A  - STORY GROUND RETAIL BACK_SPACE ELEC EQUIP,RETAILRECEPTACLE,ZONE RETAIL BACK_SPACE A  - STORY GROUND,47.90,1.5,103.125,2.153,66.667,0.000,0.200,0.000,0.800,General,0.000,103.125
 ElectricEquipment Internal Gains Nominal, ZONE RETAIL BACK_SPACE A END_B - STORY GROUND RETAIL BACK_SPACE ELEC EQUIP,RETAILRECEPTACLE,ZONE RETAIL BACK_SPACE A END_B - STORY GROUND,20.90,0.7,45.000,2.153,66.667,0.000,0.200,0.000,0.800,General,0.000,45.000
 ElectricEquipment Internal Gains Nominal, ZONE RETAIL BACK_SPACE B  - STORY GROUND RETAIL BACK_SPACE ELEC EQUIP,RETAILRECEPTACLE,ZONE RETAIL BACK_SPACE B  - STORY GROUND,648.09,20.9,1395.191,2.153,66.667,0.000,0.200,0.000,0.800,General,0.000,1395.191
 ElectricEquipment Internal Gains Nominal, ZONE RETAIL BACK_SPACE B END_B - STORY GROUND RETAIL BACK_SPACE ELEC EQUIP,RETAILRECEPTACLE,ZONE RETAIL BACK_SPACE B END_B - STORY GROUND,282.80,9.1,608.809,2.153,66.667,0.000,0.200,0.000,0.800,General,0.000,608.809
 ElectricEquipment Internal Gains Nominal, ZONE RETAIL BACK_SPACE C  - STORY GROUND RETAIL BACK_SPACE ELEC EQUIP,RETAILRECEPTACLE,ZONE RETAIL BACK_SPACE C  - STORY GROUND,47.90,1.5,103.125,2.153,66.667,0.000,0.200,0.000,0.800,General,0.000,103.125
 ElectricEquipment Internal Gains Nominal, ZONE RETAIL BACK_SPACE C END_B - STORY GROUND RETAIL BACK_SPACE ELEC EQUIP,RETAILRECEPTACLE,ZONE RETAIL BACK_SPACE C END_B - STORY GROUND,20.90,0.7,45.000,2.153,66.667,0.000,0.200,0.000,0.800,General,0.000,45.000
 ElectricEquipment Internal Gains Nominal, ZONE RETAIL ENTRY A  - STORY GROUND RETAIL ENTRY ELEC EQUIP,RETAILRECEPTACLE,ZONE RETAIL ENTRY A  - STORY GROUND,2.16,0.8,23.256,10.764,30.294,0.000,0.200,0.000,0.800,General,0.000,23.256
 ElectricEquipment Internal Gains Nominal, ZONE RETAIL ENTRY B  - STORY GROUND RETAIL ENTRY ELEC EQUIP,RETAILRECEPTACLE,ZONE RETAIL ENTRY B  - STORY GROUND,29.23,10.4,314.638,10.764,30.294,0.000,0.200,0.000,0.800,General,0.000,314.638
 ElectricEquipment Internal Gains Nominal, ZONE RETAIL ENTRY C  - STORY GROUND RETAIL ENTRY ELEC EQUIP,RETAILRECEPTACLE,ZONE RETAIL ENTRY C  - STORY GROUND,2.16,0.8,23.256,10.764,30.294,0.000,0.200,0.000,0.800,General,0.000,23.256
 ElectricEquipment Internal Gains Nominal, ZONE RETAIL POINT_OF_SALE A  - STORY GROUND RETAIL POINT_OF_SALE ELEC EQUIP,RETAILRECEPTACLE,ZONE RETAIL POINT_OF_SALE A  - STORY GROUND,27.30,9.7,293.835,10.764,30.294,0.000,0.200,0.000,0.800,General,0.000,293.835
 ElectricEquipment Internal Gains Nominal, ZONE RETAIL POINT_OF_SALE B  - STORY GROUND RETAIL POINT_OF_SALE ELEC EQUIP,RETAILRECEPTACLE,ZONE RETAIL POINT_OF_SALE B  - STORY GROUND,369.32,131.2,3975.326,10.764,30.294,0.000,0.200,0.000,0.800,General,0.000,3975.326
 ElectricEquipment Internal Gains Nominal, ZONE RETAIL POINT_OF_SALE C  - STORY GROUND RETAIL POINT_OF_SALE ELEC EQUIP,RETAILRECEPTACLE,ZONE RETAIL POINT_OF_SALE C  - STORY GROUND,27.30,9.7,293.835,10.764,30.294,0.000,0.200,0.000,0.800,General,0.000,293.835
 ElectricEquipment Internal Gains Nominal, ZONE RETAIL RETAIL A  - STORY GROUND RETAIL RETAIL ELEC EQUIP,RETAILRECEPTACLE,ZONE RETAIL RETAIL A  - STORY GROUND,296.33,105.3,3189.662,10.764,30.294,0.000,0.200,0.000,0.800,General,0.000,3189.662
 ElectricEquipment Internal Gains Nominal, ZONE RETAIL RETAIL A END_A - STORY GROUND RETAIL RETAIL ELEC EQUIP,RETAILRECEPTACLE,ZONE RETAIL RETAIL A END_A - STORY GROUND,20.90,7.4,225.000,10.764,30.294,0.000,0.200,0.000,0.800,General,0.000,225.000
 ElectricEquipment Internal Gains Nominal, ZONE RETAIL RETAIL B  - STORY GROUND RETAIL RETAIL ELEC EQUIP,RETAILRECEPTACLE,ZONE RETAIL RETAIL B  - STORY GROUND,4009.07,1424.5,43153.233,10.764,30.294,0.000,0.200,0.000,0.800,General,0.000,43153.233
 ElectricEquipment Internal Gains Nominal, ZONE RETAIL RETAIL B END_A - STORY GROUND RETAIL RETAIL ELEC EQUIP,RETAILRECEPTACLE,ZONE RETAIL RETAIL B END_A - STORY GROUND,282.80,100.5,3044.046,10.764,30.294,0.000,0.200,0.000,0.800,General,0.000,3044.046
 ElectricEquipment Internal Gains Nominal, ZONE RETAIL RETAIL C  - STORY GROUND RETAIL RETAIL ELEC EQUIP,RETAILRECEPTACLE,ZONE RETAIL RETAIL C  - STORY GROUND,296.33,105.3,3189.662,10.764,30.294,0.000,0.200,0.000,0.800,General,0.000,3189.662
 ElectricEquipment Internal Gains Nominal, ZONE RETAIL RETAIL C END_A - STORY GROUND RETAIL RETAIL ELEC EQUIP,RETAILRECEPTACLE,ZONE RETAIL RETAIL C END_A - STORY GROUND,20.90,7.4,225.000,10.764,30.294,0.000,0.200,0.000,0.800,General,0.000,225.000
! <Shadowing/Sun Position Calculations Annual Simulations>, Calculation Method, Value {days}, Allowable Number Figures in Shadow Overlap {}, Polygon Clipping Algorithm, Sky Diffuse Modeling Algorithm
Shadowing/Sun Position Calculations Annual Simulations,AverageOverDaysInFrequency,20,15000,SutherlandHodgman,SimpleSkyDiffuseModeling
! <ZoneInfiltration Airflow Stats Nominal>,Name,Schedule Name,Zone Name, Zone Floor Area {m2}, # Zone Occupants,Design Volume Flow Rate {m3/s},Volume Flow Rate/Floor Area {m3/s/m2},Volume Flow Rate/Exterior Surface Area {m3/s/m2},ACH - Air Changes per Hour,Equation A - Constant Term Coefficient {},Equation B - Temperature Term Coefficient {1/C},Equation C - Velocity Term Coefficient {s/m}, Equation D - Velocity Squared Term Coefficient {s2/m2}
 ZoneInfiltration Airflow Stats Nominal, ZONE RETAIL BACK_SPACE A  - STORY GROUND RETAIL BACK_SPACE INFILTRATION,RETAILINFILTRATION,ZONE RETAIL BACK_SPACE A  - STORY GROUND,47.90,1.5,0.125,2.608E-003,1.118E-003,1.540,1.000,0.000,0.000,0.000
 ZoneInfiltration Airflow Stats Nominal, ZONE RETAIL BACK_SPACE A END_B - STORY GROUND RETAIL BACK_SPACE INFILTRATION,RETAILINFILTRATION,ZONE RETAIL BACK_SPACE A END_B - STORY GROUND,20.90,0.7,8.566E-002,4.098E-003,1.118E-003,2.420,1.000,0.000,0.000,0.000
 ZoneInfiltration Airflow Stats Nominal, ZONE RETAIL BACK_SPACE B  - STORY GROUND RETAIL BACK_SPACE INFILTRATION,RETAILINFILTRATION,ZONE RETAIL BACK_SPACE B  - STORY GROUND,648.09,20.9,0.724,1.118E-003,1.118E-003,0.660,1.000,0.000,0.000,0.000
 ZoneInfiltration Airflow Stats Nominal, ZONE RETAIL BACK_SPACE B END_B - STORY GROUND RETAIL BACK_SPACE INFILTRATION,RETAILINFILTRATION,ZONE RETAIL BACK_SPACE B END_B - STORY GROUND,282.80,9.1,0.737,2.608E-003,1.118E-003,1.540,1.000,0.000,0.000,0.000
 ZoneInfiltration Airflow Stats Nominal, ZONE RETAIL BACK_SPACE C  - STORY GROUND RETAIL BACK_SPACE INFILTRATION,RETAILINFILTRATION,ZONE RETAIL BACK_SPACE C  - STORY GROUND,47.90,1.5,0.125,2.608E-003,1.118E-003,1.540,1.000,0.000,0.000,0.000
 ZoneInfiltration Airflow Stats Nominal, ZONE RETAIL BACK_SPACE C END_B - STORY GROUND RETAIL BACK_SPACE INFILTRATION,RETAILINFILTRATION,ZONE RETAIL BACK_SPACE C END_B - STORY GROUND,20.90,0.7,8.566E-002,4.098E-003,1.118E-003,2.420,1.000,0.000,0.000,0.000
 ZoneInfiltration Airflow Stats Nominal, ZONE RETAIL ENTRY A  - STORY GROUND RETAIL ENTRY INFILTRATION,RETAILINFILTRATION,ZONE RETAIL ENTRY A  - STORY GROUND,2.16,0.8,5.634E-003,2.608E-003,1.118E-003,1.540,1.000,0.000,0.000,0.000
 ZoneInfiltration Airflow Stats Nominal, ZONE RETAIL ENTRY B  - STORY GROUND RETAIL ENTRY INFILTRATION,RETAILINFILTRATION,ZONE RETAIL ENTRY B  - STORY GROUND,29.23,10.4,3.267E-002,1.118E-003,1.118E-003,0.660,1.000,0.000,0.000,0.000
 ZoneInfiltration Airflow Stats Nominal, ZONE RETAIL ENTRY C  - STORY GROUND RETAIL ENTRY INFILTRATION,RETAILINFILTRATION,ZONE RETAIL ENTRY C  - STORY GROUND,2.16,0.8,5.634E-003,2.608E-003,1.118E-003,1.540,1.000,0.000,0.000,0.000
 ZoneInfiltration Airflow Stats Nominal, ZONE RETAIL POINT_OF_SALE A  - STORY GROUND RETAIL POINT_OF_SALE INFILTRATION,RETAILINFILTRATION,ZONE RETAIL POINT_OF_SALE A  - STORY GROUND,27.30,9.7,7.119E-002,2.608E-003,1.118E-003,1.540,1.000,0.000,0.000,0.000
 ZoneInfiltration Airflow Stats Nominal, ZONE RETAIL POINT_OF_SALE B  - STORY GROUND RETAIL POINT_OF_SALE INFILTRATION,RETAILINFILTRATION,ZONE RETAIL POINT_OF_SALE B  - STORY GROUND,369.32,131.2,0.413,1.118E-003,1.118E-003,0.660,1.000,0.000,0.000,0.000
 ZoneInfiltration Airflow Stats Nominal, ZONE RETAIL POINT_OF_SALE C  - STORY GROUND RETAIL POINT_OF_SALE INFILTRATION,RETAILINFILTRATION,ZONE RETAIL POINT_OF_SALE C  - STORY GROUND,27.30,9.7,7.119E-002,2.608E-003,1.118E-003,1.540,1.000,0.000,0.000,0.000
 ZoneInfiltration Airflow Stats Nominal, ZONE RETAIL RETAIL A  - STORY GROUND RETAIL RETAIL INFILTRATION,RETAILINFILTRATION,ZONE RETAIL RETAIL A  - STORY GROUND,296.33,105.3,0.773,2.608E-003,1.118E-003,1.540,1.000,0.000,0.000,0.000
 ZoneInfiltration Airflow Stats Nominal, ZONE RETAIL RETAIL A END_A - STORY GROUND RETAIL RETAIL INFILTRATION,RETAILINFILTRATION,ZONE RETAIL RETAIL A END_A - STORY GROUND,20.90,7.4,8.566E-002,4.098E-003,1.118E-003,2.420,1.000,0.000,0.000,0.000
 ZoneInfiltration Airflow Stats Nominal, ZONE RETAIL RETAIL B  - STORY GROUND RETAIL RETAIL INFILTRATION,RETAILINFILTRATION,ZONE RETAIL RETAIL B  - STORY GROUND,4009.07,1424.5,4.481,1.118E-003,1.118E-003,0.660,1.000,0.000,0.000,0.000
 ZoneInfiltration Airflow Stats Nominal, ZONE RETAIL RETAIL B END_A - STORY GROUND RETAIL RETAIL INFILTRATION,RETAILINFILTRATION,ZONE RETAIL RETAIL B END_A - STORY GROUND,282.80,100.5,0.737,2.608E-003,1.118E-003,1.540,1.000,0.000,0.000,0.000
 ZoneInfiltration Airflow Stats Nominal, ZONE RETAIL RETAIL C  - STORY GROUND RETAIL RETAIL INFILTRATION,RETAILINFILTRATION,ZONE RETAIL RETAIL C  - STORY GROUND,296.33,105.3,0.773,2.608E-003,1.118E-003,1.540,1.000,0.000,0.000,0.000
 ZoneInfiltration Airflow Stats Nominal, ZONE RETAIL RETAIL C END_A - STORY GROUND RETAIL RETAIL INFILTRATION,RETAILINFILTRATION,ZONE RETAIL RETAIL C END_A - STORY GROUND,20.90,7.4,8.566E-002,4.098E-003,1.118E-003,2.420,1.000,0.000,0.000,0.000
! <AirFlow Model>, Simple
 AirFlow Model, Simple
! <RoomAir Model>, Zone Name, Mixing/Mundt/UCSDDV/UCSDCV/UCSDUFI/UCSDUFE/User Defined
RoomAir Model,ZONE RETAIL BACK_SPACE A  - STORY GROUND,Mixing/Well-Stirred
RoomAir Model,ZONE RETAIL BACK_SPACE A END_B - STORY GROUND,Mixing/Well-Stirred
RoomAir Model,ZONE RETAIL BACK_SPACE B  - STORY GROUND,Mixing/Well-Stirred
RoomAir Model,ZONE RETAIL BACK_SPACE B END_B - STORY GROUND,Mixing/Well-Stirred
RoomAir Model,ZONE RETAIL BACK_SPACE C  - STORY GROUND,Mixing/Well-Stirred
RoomAir Model,ZONE RETAIL BACK_SPACE C END_B - STORY GROUND,Mixing/Well-Stirred
RoomAir Model,ZONE RETAIL ENTRY A  - STORY GROUND,Mixing/Well-Stirred
RoomAir Model,ZONE RETAIL ENTRY B  - STORY GROUND,Mixing/Well-Stirred
RoomAir Model,ZONE RETAIL ENTRY C  - STORY GROUND,Mixing/Well-Stirred
RoomAir Model,ZONE RETAIL POINT_OF_SALE A  - STORY GROUND,Mixing/Well-Stirred
RoomAir Model,ZONE RETAIL POINT_OF_SALE B  - STORY GROUND,Mixing/Well-Stirred
RoomAir Model,ZONE RETAIL POINT_OF_SALE C  - STORY GROUND,Mixing/Well-Stirred
RoomAir Model,ZONE RETAIL RETAIL A  - STORY GROUND,Mixing/Well-Stirred
RoomAir Model,ZONE RETAIL RETAIL A END_A - STORY GROUND,Mixing/Well-Stirred
RoomAir Model,ZONE RETAIL RETAIL B  - STORY GROUND,Mixing/Well-Stirred
RoomAir Model,ZONE RETAIL RETAIL B END_A - STORY GROUND,Mixing/Well-Stirred
RoomAir Model,ZONE RETAIL RETAIL C  - STORY GROUND,Mixing/Well-Stirred
RoomAir Model,ZONE RETAIL RETAIL C END_A - STORY GROUND,Mixing/Well-Stirred
! <AirflowNetwork Model:Control>, No Multizone or Distribution/Multizone with Distribution/Multizone without Distribution/Multizone with Distribution only during Fan Operation
AirflowNetwork Model:Control,NoMultizoneOrDistribution
! <Zone Volume Capacitance Multiplier>, Sensible Heat Capacity Multiplier, Moisture Capacity Multiplier, Carbon Dioxide Capacity Multiplier, Generic Contaminant Capacity Multiplier
Zone Volume Capacitance Multiplier,   1.000 ,   1.000,   1.000,   1.000
! <Load Timesteps in Zone Design Calculation Averaging Window>, Value
 Load Timesteps in Zone Design Calculation Averaging Window,    6
! <Heating Sizing Factor Information>, Sizing Factor ID, Value
 Heating Sizing Factor Information, Global,   1.2500    
 Heating Sizing Factor Information, Zone ZONE RETAIL BACK_SPACE A  - STORY GROUND,   1.2500    
 Heating Sizing Factor Information, Zone ZONE RETAIL BACK_SPACE A END_B - STORY GROUND,   1.2500    
 Heating Sizing Factor Information, Zone ZONE RETAIL BACK_SPACE B  - STORY GROUND,   1.2500    
 Heating Sizing Factor Information, Zone ZONE RETAIL BACK_SPACE B END_B - STORY GROUND,   1.2500    
 Heating Sizing Factor Information, Zone ZONE RETAIL BACK_SPACE C  - STORY GROUND,   1.2500    
 Heating Sizing Factor Information, Zone ZONE RETAIL BACK_SPACE C END_B - STORY GROUND,   1.2500    
 Heating Sizing Factor Information, Zone ZONE RETAIL ENTRY A  - STORY GROUND,   1.2500    
 Heating Sizing Factor Information, Zone ZONE RETAIL ENTRY B  - STORY GROUND,   1.2500    
 Heating Sizing Factor Information, Zone ZONE RETAIL ENTRY C  - STORY GROUND,   1.2500    
 Heating Sizing Factor Information, Zone ZONE RETAIL POINT_OF_SALE A  - STORY GROUND,   1.2500    
 Heating Sizing Factor Information, Zone ZONE RETAIL POINT_OF_SALE B  - STORY GROUND,   1.2500    
 Heating Sizing Factor Information, Zone ZONE RETAIL POINT_OF_SALE C  - STORY GROUND,   1.2500    
 Heating Sizing Factor Information, Zone ZONE RETAIL RETAIL A  - STORY GROUND,   1.2500    
 Heating Sizing Factor Information, Zone ZONE RETAIL RETAIL A END_A - STORY GROUND,   1.2500    
 Heating Sizing Factor Information, Zone ZONE RETAIL RETAIL B  - STORY GROUND,   1.2500    
 Heating Sizing Factor Information, Zone ZONE RETAIL RETAIL B END_A - STORY GROUND,   1.2500    
 Heating Sizing Factor Information, Zone ZONE RETAIL RETAIL C  - STORY GROUND,   1.2500    
 Heating Sizing Factor Information, Zone ZONE RETAIL RETAIL C END_A - STORY GROUND,   1.2500    
! <Cooling Sizing Factor Information>, Sizing Factor ID, Value
 Cooling Sizing Factor Information, Global,   1.1500    
 Cooling Sizing Factor Information, Zone ZONE RETAIL BACK_SPACE A  - STORY GROUND,   1.1500    
 Cooling Sizing Factor Information, Zone ZONE RETAIL BACK_SPACE A END_B - STORY GROUND,   1.1500    
 Cooling Sizing Factor Information, Zone ZONE RETAIL BACK_SPACE B  - STORY GROUND,   1.1500    
 Cooling Sizing Factor Information, Zone ZONE RETAIL BACK_SPACE B END_B - STORY GROUND,   1.1500    
 Cooling Sizing Factor Information, Zone ZONE RETAIL BACK_SPACE C  - STORY GROUND,   1.1500    
 Cooling Sizing Factor Information, Zone ZONE RETAIL BACK_SPACE C END_B - STORY GROUND,   1.1500    
 Cooling Sizing Factor Information, Zone ZONE RETAIL ENTRY A  - STORY GROUND,   1.1500    
 Cooling Sizing Factor Information, Zone ZONE RETAIL ENTRY B  - STORY GROUND,   1.1500    
 Cooling Sizing Factor Information, Zone ZONE RETAIL ENTRY C  - STORY GROUND,   1.1500    
 Cooling Sizing Factor Information, Zone ZONE RETAIL POINT_OF_SALE A  - STORY GROUND,   1.1500    
 Cooling Sizing Factor Information, Zone ZONE RETAIL POINT_OF_SALE B  - STORY GROUND,   1.1500    
 Cooling Sizing Factor Information, Zone ZONE RETAIL POINT_OF_SALE C  - STORY GROUND,   1.1500    
 Cooling Sizing Factor Information, Zone ZONE RETAIL RETAIL A  - STORY GROUND,   1.1500    
 Cooling Sizing Factor Information, Zone ZONE RETAIL RETAIL A END_A - STORY GROUND,   1.1500    
 Cooling Sizing Factor Information, Zone ZONE RETAIL RETAIL B  - STORY GROUND,   1.1500    
 Cooling Sizing Factor Information, Zone ZONE RETAIL RETAIL B END_A - STORY GROUND,   1.1500    
 Cooling Sizing Factor Information, Zone ZONE RETAIL RETAIL C  - STORY GROUND,   1.1500    
 Cooling Sizing Factor Information, Zone ZONE RETAIL RETAIL C END_A - STORY GROUND,   1.1500    
! <Zone Sizing Information>, Zone Name, Load Type, Calc Des Load {W}, User Des Load {W}, Calc Des Air Flow Rate {m3/s}, User Des Air Flow Rate {m3/s}, Design Day Name, Date/Time of Peak, Temperature at Peak {C}, Humidity Ratio at Peak {kgWater/kgDryAir}, Floor Area {m2}, # Occupants, Calc Outdoor Air Flow Rate {m3/s}, Calc DOAS Heat Addition Rate {W}
 Zone Sizing Information, ZONE RETAIL BACK_SPACE A  - STORY GROUND, Cooling, 2321.72009, 2669.97810, 0.16870, 0.19400, CLIMATE ZONE 3 ANN CLG .4% CONDNS DB=>MWB, 8/21 13:30:00, 27.51500, 9.30032E-003, 47.90322, 1.54688, 4.74529E-002, 0.00000
 Zone Sizing Information, ZONE RETAIL BACK_SPACE A  - STORY GROUND, Heating, 3523.91913, 4404.89892, 0.15102, 0.18877, CLIMATE ZONE 3 ANN HTG 99.6% CONDNS DB, 1/21 22:10:00, 2.90000, 4.65595E-003, 47.90322, 1.54688, 4.74529E-002, 0.00000
 Zone Sizing Information, ZONE RETAIL BACK_SPACE A END_B - STORY GROUND, Cooling, 1463.44135, 1682.95755, 0.10634, 0.12229, CLIMATE ZONE 3 ANN CLG .4% CONDNS DB=>MWB, 8/21 11:00:00, 25.99800, 9.30032E-003, 20.90318, 0.67500, 2.07067E-002, 0.00000
 Zone Sizing Information, ZONE RETAIL BACK_SPACE A END_B - STORY GROUND, Heating, 2524.39451, 3155.49314, 0.10817, 0.13521, CLIMATE ZONE 3 ANN HTG 99.6% CONDNS DB, 1/21 15:00:00, 2.90000, 4.65595E-003, 20.90318, 0.67500, 2.07067E-002, 0.00000
 Zone Sizing Information, ZONE RETAIL BACK_SPACE B  - STORY GROUND, Cooling, 23586.83033, 27124.85488, 1.58528, 1.82307, CLIMATE ZONE 3 ANN CLG .4% CONDNS DB=>MWB, 8/21 07:00:00, 20.96600, 9.30032E-003, 648.08723, 20.92786, 0.64200, 0.00000
 Zone Sizing Information, ZONE RETAIL BACK_SPACE B  - STORY GROUND, Heating, 18032.88238, 22541.10297, 0.77293, 0.96616, CLIMATE ZONE 3 ANN HTG 99.6% CONDNS DB, 1/21 07:40:00, 2.90000, 4.65595E-003, 648.08723, 20.92786, 0.64200, 0.00000
 Zone Sizing Information, ZONE RETAIL BACK_SPACE B END_B - STORY GROUND, Cooling, 14843.26471, 17069.75442, 1.07853, 1.24031, CLIMATE ZONE 3 ANN CLG .4% CONDNS DB=>MWB, 8/21 09:40:00, 24.46867, 9.30032E-003, 282.80115, 9.13214, 0.28014, 0.00000
 Zone Sizing Information, ZONE RETAIL BACK_SPACE B END_B - STORY GROUND, Heating, 20737.15512, 25921.44391, 0.88868, 1.11085, CLIMATE ZONE 3 ANN HTG 99.6% CONDNS DB, 1/21 17:10:00, 2.90000, 4.65595E-003, 282.80115, 9.13214, 0.28014, 0.00000
 Zone Sizing Information, ZONE RETAIL BACK_SPACE C  - STORY GROUND, Cooling, 1404.27184, 1614.91261, 0.10020, 0.11523, CLIMATE ZONE 3 ANN CLG .4% CONDNS DB=>MWB, 8/21 07:00:00, 20.96600, 9.30032E-003, 47.90322, 1.54688, 4.74529E-002, 0.00000
 Zone Sizing Information, ZONE RETAIL BACK_SPACE C  - STORY GROUND, Heating, 3522.27652, 4402.84565, 0.15095, 0.18868, CLIMATE ZONE 3 ANN HTG 99.6% CONDNS DB, 1/21 15:00:00, 2.90000, 4.65595E-003, 47.90322, 1.54688, 4.74529E-002, 0.00000
 Zone Sizing Information, ZONE RETAIL BACK_SPACE C END_B - STORY GROUND, Cooling, 1234.51102, 1419.68767, 8.97015E-002, 0.10316, CLIMATE ZONE 3 ANN CLG .4% CONDNS DB=>MWB, 8/21 10:10:00, 25.07300, 9.30032E-003, 20.90318, 0.67500, 2.07067E-002, 0.00000
 Zone Sizing Information, ZONE RETAIL BACK_SPACE C END_B - STORY GROUND, Heating, 2523.65922, 3154.57403, 0.10814, 0.13517, CLIMATE ZONE 3 ANN HTG 99.6% CONDNS DB, 1/21 11:00:00, 2.90000, 4.65595E-003, 20.90318, 0.67500, 2.07067E-002, 0.00000
 Zone Sizing Information, ZONE RETAIL ENTRY A  - STORY GROUND, Cooling, 993.81732, 1142.88992, 7.13423E-002, 8.20437E-002, CLIMATE ZONE 3 ANN CLG .4% CONDNS DB=>MWB, 8/21 07:00:00, 20.96600, 9.30032E-003, 2.16059, 0.76769, 8.72740E-003, 0.00000
 Zone Sizing Information, ZONE RETAIL ENTRY A  - STORY GROUND, Heating, 111.28515, 139.10643, 4.77024E-003, 8.72740E-003, CLIMATE ZONE 3 ANN HTG 99.6% CONDNS DB, 1/21 12:20:00, 2.90000, 4.65595E-003, 2.16059, 0.76769, 8.72740E-003, 0.00000
 Zone Sizing Information, ZONE RETAIL ENTRY B  - STORY GROUND, Cooling, 15287.73459, 17580.89478, 1.09840, 1.26316, CLIMATE ZONE 3 ANN CLG .4% CONDNS DB=>MWB, 8/21 07:00:00, 20.96600, 9.30032E-003, 29.23079, 10.38619, 0.11807, 0.00000
 Zone Sizing Information, ZONE RETAIL ENTRY B  - STORY GROUND, Heating, 0.00000, 0.00000, 0.00000, 0.11807, CLIMATE ZONE 3 ANN HTG 99.6% CONDNS DB, , 2.90000, 4.65595E-003, 29.23079, 10.38619, 0.11807, 0.00000
 Zone Sizing Information, ZONE RETAIL ENTRY C  - STORY GROUND, Cooling, 1000.11270, 1150.12960, 7.18004E-002, 8.25704E-002, CLIMATE ZONE 3 ANN CLG .4% CONDNS DB=>MWB, 8/21 07:00:00, 20.96600, 9.30032E-003, 2.16059, 0.76769, 8.72740E-003, 0.00000
 Zone Sizing Information, ZONE RETAIL ENTRY C  - STORY GROUND, Heating, 111.12929, 138.91162, 4.76356E-003, 8.72740E-003, CLIMATE ZONE 3 ANN HTG 99.6% CONDNS DB, 1/21 06:00:00, 2.90000, 4.65595E-003, 2.16059, 0.76769, 8.72740E-003, 0.00000
 Zone Sizing Information, ZONE RETAIL POINT_OF_SALE A  - STORY GROUND, Cooling, 3466.95285, 3986.99578, 0.23622, 0.27165, CLIMATE ZONE 3 ANN CLG .4% CONDNS DB=>MWB, 8/21 07:00:00, 20.96600, 9.30032E-003, 27.29819, 9.69950, 0.11027, 0.00000
 Zone Sizing Information, ZONE RETAIL POINT_OF_SALE A  - STORY GROUND, Heating, 1294.22550, 1617.78187, 5.54750E-002, 0.11027, CLIMATE ZONE 3 ANN HTG 99.6% CONDNS DB, 1/21 16:00:00, 2.90000, 4.65595E-003, 27.29819, 9.69950, 0.11027, 0.00000
 Zone Sizing Information, ZONE RETAIL POINT_OF_SALE B  - STORY GROUND, Cooling, 40564.86035, 46649.58940, 2.73610, 3.14651, CLIMATE ZONE 3 ANN CLG .4% CONDNS DB=>MWB, 8/21 07:00:00, 20.96600, 9.30032E-003, 369.31985, 131.22550, 1.49182, 0.00000
 Zone Sizing Information, ZONE RETAIL POINT_OF_SALE B  - STORY GROUND, Heating, 1402.60015, 1753.25019, 6.01277E-002, 1.49182, CLIMATE ZONE 3 ANN HTG 99.6% CONDNS DB, 1/21 00:10:00, 2.90000, 4.65595E-003, 369.31985, 131.22550, 1.49182, 0.00000
 Zone Sizing Information, ZONE RETAIL POINT_OF_SALE C  - STORY GROUND, Cooling, 3502.01368, 4027.31573, 0.23874, 0.27455, CLIMATE ZONE 3 ANN CLG .4% CONDNS DB=>MWB, 8/21 07:00:00, 20.96600, 9.30032E-003, 27.29819, 9.69950, 0.11027, 0.00000
 Zone Sizing Information, ZONE RETAIL POINT_OF_SALE C  - STORY GROUND, Heating, 1293.27157, 1616.58946, 5.54341E-002, 0.11027, CLIMATE ZONE 3 ANN HTG 99.6% CONDNS DB, 1/21 00:10:00, 2.90000, 4.65595E-003, 27.29819, 9.69950, 0.11027, 0.00000
 Zone Sizing Information, ZONE RETAIL RETAIL A  - STORY GROUND, Cooling, 38224.03533, 43957.64063, 2.60321, 2.99369, CLIMATE ZONE 3 ANN CLG .4% CONDNS DB=>MWB, 8/21 07:00:00, 20.96600, 9.30032E-003, 296.32925, 105.29073, 0.30107, 0.00000
 Zone Sizing Information, ZONE RETAIL RETAIL A  - STORY GROUND, Heating, 13286.00664, 16607.50830, 0.56948, 0.71185, CLIMATE ZONE 3 ANN HTG 99.6% CONDNS DB, 1/21 18:00:00, 2.90000, 4.65595E-003, 296.32925, 105.29073, 0.30107, 0.00000
 Zone Sizing Information, ZONE RETAIL RETAIL A END_A - STORY GROUND, Cooling, 2840.75961, 3266.87355, 0.20651, 0.23749, CLIMATE ZONE 3 ANN CLG .4% CONDNS WB=>MDB, 8/21 16:10:00, 24.95733, 1.21403E-002, 20.90318, 7.42725, 2.12376E-002, 0.00000
 Zone Sizing Information, ZONE RETAIL RETAIL A END_A - STORY GROUND, Heating, 1920.86073, 2401.07591, 8.23228E-002, 0.10290, CLIMATE ZONE 3 ANN HTG 99.6% CONDNS DB, 1/21 09:50:00, 2.90000, 4.65595E-003, 20.90318, 7.42725, 2.12376E-002, 0.00000
 Zone Sizing Information, ZONE RETAIL RETAIL B  - STORY GROUND, Cooling, 401634.85277, 461880.08069, 26.88380, 30.91637, CLIMATE ZONE 3 ANN CLG .4% CONDNS DB=>MWB, 8/21 07:00:00, 20.96600, 9.30032E-003, 4009.06650, 1424.48821, 4.07321, 0.00000
 Zone Sizing Information, ZONE RETAIL RETAIL B  - STORY GROUND, Heating, 10690.85047, 13363.56309, 0.45830, 4.07321, CLIMATE ZONE 3 ANN HTG 99.6% CONDNS DB, 1/21 02:00:00, 2.90000, 4.65595E-003, 4009.06650, 1424.48821, 4.07321, 0.00000
 Zone Sizing Information, ZONE RETAIL RETAIL B END_A - STORY GROUND, Cooling, 36557.22485, 42040.80858, 2.48996, 2.86345, CLIMATE ZONE 3 ANN CLG .4% CONDNS DB=>MWB, 8/21 07:00:00, 20.96600, 9.30032E-003, 282.80115, 100.48397, 0.28733, 0.00000
 Zone Sizing Information, ZONE RETAIL RETAIL B END_A - STORY GROUND, Heating, 12710.61529, 15888.26911, 0.54482, 0.68102, CLIMATE ZONE 3 ANN HTG 99.6% CONDNS DB, 1/21 09:10:00, 2.90000, 4.65595E-003, 282.80115, 100.48397, 0.28733, 0.00000
 Zone Sizing Information, ZONE RETAIL RETAIL C  - STORY GROUND, Cooling, 38586.05062, 44373.95821, 2.62910, 3.02347, CLIMATE ZONE 3 ANN CLG .4% CONDNS DB=>MWB, 8/21 07:00:00, 20.96600, 9.30032E-003, 296.32925, 105.29073, 0.30107, 0.00000
 Zone Sizing Information, ZONE RETAIL RETAIL C  - STORY GROUND, Heating, 13276.00971, 16595.01213, 0.56905, 0.71132, CLIMATE ZONE 3 ANN HTG 99.6% CONDNS DB, 1/21 20:20:00, 2.90000, 4.65595E-003, 296.32925, 105.29073, 0.30107, 0.00000
 Zone Sizing Information, ZONE RETAIL RETAIL C END_A - STORY GROUND, Cooling, 2993.27651, 3442.26799, 0.20598, 0.23687, CLIMATE ZONE 3 ANN CLG .4% CONDNS DB=>MWB, 8/21 07:00:00, 20.96600, 9.30032E-003, 20.90318, 7.42725, 2.12376E-002, 0.00000
 Zone Sizing Information, ZONE RETAIL RETAIL C END_A - STORY GROUND, Heating, 1920.08564, 2400.10704, 8.22895E-002, 0.10286, CLIMATE ZONE 3 ANN HTG 99.6% CONDNS DB, 1/21 20:20:00, 2.90000, 4.65595E-003, 20.90318, 7.42725, 2.12376E-002, 0.00000
! <System Sizing Information>, System Name, Field Description, Value
 System Sizing Information, ZONE RETAIL BACK_SPACE A  - STORY GROUND PSZ-AC, Calculated Cooling Design Air Flow Rate [m3/s], 0.19400
 System Sizing Information, ZONE RETAIL BACK_SPACE A  - STORY GROUND PSZ-AC, User Cooling Design Air Flow Rate [m3/s], 0.19400
 System Sizing Information, ZONE RETAIL BACK_SPACE A  - STORY GROUND PSZ-AC, Calculated Heating Design Air Flow Rate [m3/s], 0.18877
 System Sizing Information, ZONE RETAIL BACK_SPACE A  - STORY GROUND PSZ-AC, User Heating Design Air Flow Rate [m3/s], 0.18877
 System Sizing Information, ZONE RETAIL BACK_SPACE A END_B - STORY GROUND PSZ-AC, Calculated Cooling Design Air Flow Rate [m3/s], 0.12229
 System Sizing Information, ZONE RETAIL BACK_SPACE A END_B - STORY GROUND PSZ-AC, User Cooling Design Air Flow Rate [m3/s], 0.12229
 System Sizing Information, ZONE RETAIL BACK_SPACE A END_B - STORY GROUND PSZ-AC, Calculated Heating Design Air Flow Rate [m3/s], 0.13521
 System Sizing Information, ZONE RETAIL BACK_SPACE A END_B - STORY GROUND PSZ-AC, User Heating Design Air Flow Rate [m3/s], 0.13521
 System Sizing Information, ZONE RETAIL BACK_SPACE B  - STORY GROUND PSZ-AC, Calculated Cooling Design Air Flow Rate [m3/s], 1.82307
 System Sizing Information, ZONE RETAIL BACK_SPACE B  - STORY GROUND PSZ-AC, User Cooling Design Air Flow Rate [m3/s], 1.82307
 System Sizing Information, ZONE RETAIL BACK_SPACE B  - STORY GROUND PSZ-AC, Calculated Heating Design Air Flow Rate [m3/s], 0.96616
 System Sizing Information, ZONE RETAIL BACK_SPACE B  - STORY GROUND PSZ-AC, User Heating Design Air Flow Rate [m3/s], 0.96616
 System Sizing Information, ZONE RETAIL BACK_SPACE B END_B - STORY GROUND PSZ-AC, Calculated Cooling Design Air Flow Rate [m3/s], 1.24031
 System Sizing Information, ZONE RETAIL BACK_SPACE B END_B - STORY GROUND PSZ-AC, User Cooling Design Air Flow Rate [m3/s], 1.24031
 System Sizing Information, ZONE RETAIL BACK_SPACE B END_B - STORY GROUND PSZ-AC, Calculated Heating Design Air Flow Rate [m3/s], 1.11085
 System Sizing Information, ZONE RETAIL BACK_SPACE B END_B - STORY GROUND PSZ-AC, User Heating Design Air Flow Rate [m3/s], 1.11085
 System Sizing Information, ZONE RETAIL BACK_SPACE C  - STORY GROUND PSZ-AC, Calculated Cooling Design Air Flow Rate [m3/s], 0.11582
 System Sizing Information, ZONE RETAIL BACK_SPACE C  - STORY GROUND PSZ-AC, User Cooling Design Air Flow Rate [m3/s], 0.11582
 System Sizing Information, ZONE RETAIL BACK_SPACE C  - STORY GROUND PSZ-AC, Calculated Heating Design Air Flow Rate [m3/s], 0.18868
 System Sizing Information, ZONE RETAIL BACK_SPACE C  - STORY GROUND PSZ-AC, User Heating Design Air Flow Rate [m3/s], 0.18868
 System Sizing Information, ZONE RETAIL BACK_SPACE C END_B - STORY GROUND PSZ-AC, Calculated Cooling Design Air Flow Rate [m3/s], 0.10316
 System Sizing Information, ZONE RETAIL BACK_SPACE C END_B - STORY GROUND PSZ-AC, User Cooling Design Air Flow Rate [m3/s], 0.10316
 System Sizing Information, ZONE RETAIL BACK_SPACE C END_B - STORY GROUND PSZ-AC, Calculated Heating Design Air Flow Rate [m3/s], 0.13517
 System Sizing Information, ZONE RETAIL BACK_SPACE C END_B - STORY GROUND PSZ-AC, User Heating Design Air Flow Rate [m3/s], 0.13517
 System Sizing Information, ZONE RETAIL ENTRY A  - STORY GROUND PSZ-AC, Calculated Cooling Design Air Flow Rate [m3/s], 8.20437E-002
 System Sizing Information, ZONE RETAIL ENTRY A  - STORY GROUND PSZ-AC, User Cooling Design Air Flow Rate [m3/s], 8.20437E-002
 System Sizing Information, ZONE RETAIL ENTRY A  - STORY GROUND PSZ-AC, Calculated Heating Design Air Flow Rate [m3/s], 8.72740E-003
 System Sizing Information, ZONE RETAIL ENTRY A  - STORY GROUND PSZ-AC, User Heating Design Air Flow Rate [m3/s], 8.72740E-003
 System Sizing Information, ZONE RETAIL ENTRY B  - STORY GROUND PSZ-AC, Calculated Cooling Design Air Flow Rate [m3/s], 1.26316
 System Sizing Information, ZONE RETAIL ENTRY B  - STORY GROUND PSZ-AC, User Cooling Design Air Flow Rate [m3/s], 1.26316
 System Sizing Information, ZONE RETAIL ENTRY B  - STORY GROUND PSZ-AC, Calculated Heating Design Air Flow Rate [m3/s], 0.11807
 System Sizing Information, ZONE RETAIL ENTRY B  - STORY GROUND PSZ-AC, User Heating Design Air Flow Rate [m3/s], 0.11807
 System Sizing Information, ZONE RETAIL ENTRY C  - STORY GROUND PSZ-AC, Calculated Cooling Design Air Flow Rate [m3/s], 8.25704E-002
 System Sizing Information, ZONE RETAIL ENTRY C  - STORY GROUND PSZ-AC, User Cooling Design Air Flow Rate [m3/s], 8.25704E-002
 System Sizing Information, ZONE RETAIL ENTRY C  - STORY GROUND PSZ-AC, Calculated Heating Design Air Flow Rate [m3/s], 8.72740E-003
 System Sizing Information, ZONE RETAIL ENTRY C  - STORY GROUND PSZ-AC, User Heating Design Air Flow Rate [m3/s], 8.72740E-003
 System Sizing Information, ZONE RETAIL POINT_OF_SALE A  - STORY GROUND PSZ-AC, Calculated Cooling Design Air Flow Rate [m3/s], 0.27165
 System Sizing Information, ZONE RETAIL POINT_OF_SALE A  - STORY GROUND PSZ-AC, User Cooling Design Air Flow Rate [m3/s], 0.27165
 System Sizing Information, ZONE RETAIL POINT_OF_SALE A  - STORY GROUND PSZ-AC, Calculated Heating Design Air Flow Rate [m3/s], 0.11027
 System Sizing Information, ZONE RETAIL POINT_OF_SALE A  - STORY GROUND PSZ-AC, User Heating Design Air Flow Rate [m3/s], 0.11027
 System Sizing Information, ZONE RETAIL POINT_OF_SALE B  - STORY GROUND PSZ-AC, Calculated Cooling Design Air Flow Rate [m3/s], 3.14651
 System Sizing Information, ZONE RETAIL POINT_OF_SALE B  - STORY GROUND PSZ-AC, User Cooling Design Air Flow Rate [m3/s], 3.14651
 System Sizing Information, ZONE RETAIL POINT_OF_SALE B  - STORY GROUND PSZ-AC, Calculated Heating Design Air Flow Rate [m3/s], 1.49182
 System Sizing Information, ZONE RETAIL POINT_OF_SALE B  - STORY GROUND PSZ-AC, User Heating Design Air Flow Rate [m3/s], 1.49182
 System Sizing Information, ZONE RETAIL POINT_OF_SALE C  - STORY GROUND PSZ-AC, Calculated Cooling Design Air Flow Rate [m3/s], 0.27455
 System Sizing Information, ZONE RETAIL POINT_OF_SALE C  - STORY GROUND PSZ-AC, User Cooling Design Air Flow Rate [m3/s], 0.27455
 System Sizing Information, ZONE RETAIL POINT_OF_SALE C  - STORY GROUND PSZ-AC, Calculated Heating Design Air Flow Rate [m3/s], 0.11027
 System Sizing Information, ZONE RETAIL POINT_OF_SALE C  - STORY GROUND PSZ-AC, User Heating Design Air Flow Rate [m3/s], 0.11027
 System Sizing Information, ZONE RETAIL RETAIL A  - STORY GROUND PSZ-AC, Calculated Cooling Design Air Flow Rate [m3/s], 2.99369
 System Sizing Information, ZONE RETAIL RETAIL A  - STORY GROUND PSZ-AC, User Cooling Design Air Flow Rate [m3/s], 2.99369
 System Sizing Information, ZONE RETAIL RETAIL A  - STORY GROUND PSZ-AC, Calculated Heating Design Air Flow Rate [m3/s], 0.71185
 System Sizing Information, ZONE RETAIL RETAIL A  - STORY GROUND PSZ-AC, User Heating Design Air Flow Rate [m3/s], 0.71185
 System Sizing Information, ZONE RETAIL RETAIL A END_A - STORY GROUND PSZ-AC, Calculated Cooling Design Air Flow Rate [m3/s], 0.24749
 System Sizing Information, ZONE RETAIL RETAIL A END_A - STORY GROUND PSZ-AC, User Cooling Design Air Flow Rate [m3/s], 0.24749
 System Sizing Information, ZONE RETAIL RETAIL A END_A - STORY GROUND PSZ-AC, Calculated Heating Design Air Flow Rate [m3/s], 0.10290
 System Sizing Information, ZONE RETAIL RETAIL A END_A - STORY GROUND PSZ-AC, User Heating Design Air Flow Rate [m3/s], 0.10290
 System Sizing Information, ZONE RETAIL RETAIL B  - STORY GROUND PSZ-AC, Calculated Cooling Design Air Flow Rate [m3/s], 30.91637
 System Sizing Information, ZONE RETAIL RETAIL B  - STORY GROUND PSZ-AC, User Cooling Design Air Flow Rate [m3/s], 30.91637
 System Sizing Information, ZONE RETAIL RETAIL B  - STORY GROUND PSZ-AC, Calculated Heating Design Air Flow Rate [m3/s], 4.07321
 System Sizing Information, ZONE RETAIL RETAIL B  - STORY GROUND PSZ-AC, User Heating Design Air Flow Rate [m3/s], 4.07321
 System Sizing Information, ZONE RETAIL RETAIL B END_A - STORY GROUND PSZ-AC, Calculated Cooling Design Air Flow Rate [m3/s], 2.88874
 System Sizing Information, ZONE RETAIL RETAIL B END_A - STORY GROUND PSZ-AC, User Cooling Design Air Flow Rate [m3/s], 2.88874
 System Sizing Information, ZONE RETAIL RETAIL B END_A - STORY GROUND PSZ-AC, Calculated Heating Design Air Flow Rate [m3/s], 0.68102
 System Sizing Information, ZONE RETAIL RETAIL B END_A - STORY GROUND PSZ-AC, User Heating Design Air Flow Rate [m3/s], 0.68102
 System Sizing Information, ZONE RETAIL RETAIL C  - STORY GROUND PSZ-AC, Calculated Cooling Design Air Flow Rate [m3/s], 3.02347
 System Sizing Information, ZONE RETAIL RETAIL C  - STORY GROUND PSZ-AC, User Cooling Design Air Flow Rate [m3/s], 3.02347
 System Sizing Information, ZONE RETAIL RETAIL C  - STORY GROUND PSZ-AC, Calculated Heating Design Air Flow Rate [m3/s], 0.71132
 System Sizing Information, ZONE RETAIL RETAIL C  - STORY GROUND PSZ-AC, User Heating Design Air Flow Rate [m3/s], 0.71132
 System Sizing Information, ZONE RETAIL RETAIL C END_A - STORY GROUND PSZ-AC, Calculated Cooling Design Air Flow Rate [m3/s], 0.23687
 System Sizing Information, ZONE RETAIL RETAIL C END_A - STORY GROUND PSZ-AC, User Cooling Design Air Flow Rate [m3/s], 0.23687
 System Sizing Information, ZONE RETAIL RETAIL C END_A - STORY GROUND PSZ-AC, Calculated Heating Design Air Flow Rate [m3/s], 0.10286
 System Sizing Information, ZONE RETAIL RETAIL C END_A - STORY GROUND PSZ-AC, User Heating Design Air Flow Rate [m3/s], 0.10286
! <Component Sizing Information>, Component Type, Component Name, Input Field Description, Value
 Component Sizing Information, AirTerminal:SingleDuct:Uncontrolled, ZONE RETAIL BACK_SPACE A  - STORY GROUND PSZ-AC DIFFUSER, Design Size Maximum Air Flow Rate [m3/s], 0.19400
 Component Sizing Information, AirTerminal:SingleDuct:Uncontrolled, ZONE RETAIL BACK_SPACE A END_B - STORY GROUND PSZ-AC DIFFUSER, Design Size Maximum Air Flow Rate [m3/s], 0.13521
 Component Sizing Information, AirTerminal:SingleDuct:Uncontrolled, ZONE RETAIL BACK_SPACE B  - STORY GROUND PSZ-AC DIFFUSER, Design Size Maximum Air Flow Rate [m3/s], 1.82307
 Component Sizing Information, AirTerminal:SingleDuct:Uncontrolled, ZONE RETAIL BACK_SPACE B END_B - STORY GROUND PSZ-AC DIFFUSER, Design Size Maximum Air Flow Rate [m3/s], 1.24031
 Component Sizing Information, AirTerminal:SingleDuct:Uncontrolled, ZONE RETAIL BACK_SPACE C  - STORY GROUND PSZ-AC DIFFUSER, Design Size Maximum Air Flow Rate [m3/s], 0.18868
 Component Sizing Information, AirTerminal:SingleDuct:Uncontrolled, ZONE RETAIL BACK_SPACE C END_B - STORY GROUND PSZ-AC DIFFUSER, Design Size Maximum Air Flow Rate [m3/s], 0.13517
 Component Sizing Information, AirTerminal:SingleDuct:Uncontrolled, ZONE RETAIL ENTRY A  - STORY GROUND PSZ-AC DIFFUSER, Design Size Maximum Air Flow Rate [m3/s], 8.20437E-002
 Component Sizing Information, AirTerminal:SingleDuct:Uncontrolled, ZONE RETAIL ENTRY B  - STORY GROUND PSZ-AC DIFFUSER, Design Size Maximum Air Flow Rate [m3/s], 1.26316
 Component Sizing Information, AirTerminal:SingleDuct:Uncontrolled, ZONE RETAIL ENTRY C  - STORY GROUND PSZ-AC DIFFUSER, Design Size Maximum Air Flow Rate [m3/s], 8.25704E-002
 Component Sizing Information, AirTerminal:SingleDuct:Uncontrolled, ZONE RETAIL POINT_OF_SALE A  - STORY GROUND PSZ-AC DIFFUSER, Design Size Maximum Air Flow Rate [m3/s], 0.27165
 Component Sizing Information, AirTerminal:SingleDuct:Uncontrolled, ZONE RETAIL POINT_OF_SALE B  - STORY GROUND PSZ-AC DIFFUSER, Design Size Maximum Air Flow Rate [m3/s], 3.14651
 Component Sizing Information, AirTerminal:SingleDuct:Uncontrolled, ZONE RETAIL POINT_OF_SALE C  - STORY GROUND PSZ-AC DIFFUSER, Design Size Maximum Air Flow Rate [m3/s], 0.27455
 Component Sizing Information, AirTerminal:SingleDuct:Uncontrolled, ZONE RETAIL RETAIL A  - STORY GROUND PSZ-AC DIFFUSER, Design Size Maximum Air Flow Rate [m3/s], 2.99369
 Component Sizing Information, AirTerminal:SingleDuct:Uncontrolled, ZONE RETAIL RETAIL A END_A - STORY GROUND PSZ-AC DIFFUSER, Design Size Maximum Air Flow Rate [m3/s], 0.23749
 Component Sizing Information, AirTerminal:SingleDuct:Uncontrolled, ZONE RETAIL RETAIL B  - STORY GROUND PSZ-AC DIFFUSER, Design Size Maximum Air Flow Rate [m3/s], 30.91637
 Component Sizing Information, AirTerminal:SingleDuct:Uncontrolled, ZONE RETAIL RETAIL B END_A - STORY GROUND PSZ-AC DIFFUSER, Design Size Maximum Air Flow Rate [m3/s], 2.86345
 Component Sizing Information, AirTerminal:SingleDuct:Uncontrolled, ZONE RETAIL RETAIL C  - STORY GROUND PSZ-AC DIFFUSER, Design Size Maximum Air Flow Rate [m3/s], 3.02347
 Component Sizing Information, AirTerminal:SingleDuct:Uncontrolled, ZONE RETAIL RETAIL C END_A - STORY GROUND PSZ-AC DIFFUSER, Design Size Maximum Air Flow Rate [m3/s], 0.23687
 Component Sizing Information, AirLoopHVAC, ZONE RETAIL BACK_SPACE A  - STORY GROUND PSZ-AC, Design Supply Air Flow Rate [m3/s], 0.19400
 Component Sizing Information, AirLoopHVAC, ZONE RETAIL BACK_SPACE A END_B - STORY GROUND PSZ-AC, Design Supply Air Flow Rate [m3/s], 0.13521
 Component Sizing Information, AirLoopHVAC, ZONE RETAIL BACK_SPACE B  - STORY GROUND PSZ-AC, Design Supply Air Flow Rate [m3/s], 1.82307
 Component Sizing Information, AirLoopHVAC, ZONE RETAIL BACK_SPACE B END_B - STORY GROUND PSZ-AC, Design Supply Air Flow Rate [m3/s], 1.24031
 Component Sizing Information, AirLoopHVAC, ZONE RETAIL BACK_SPACE C  - STORY GROUND PSZ-AC, Design Supply Air Flow Rate [m3/s], 0.18868
 Component Sizing Information, AirLoopHVAC, ZONE RETAIL BACK_SPACE C END_B - STORY GROUND PSZ-AC, Design Supply Air Flow Rate [m3/s], 0.13517
 Component Sizing Information, AirLoopHVAC, ZONE RETAIL ENTRY A  - STORY GROUND PSZ-AC, Design Supply Air Flow Rate [m3/s], 8.20437E-002
 Component Sizing Information, AirLoopHVAC, ZONE RETAIL ENTRY B  - STORY GROUND PSZ-AC, Design Supply Air Flow Rate [m3/s], 1.26316
 Component Sizing Information, AirLoopHVAC, ZONE RETAIL ENTRY C  - STORY GROUND PSZ-AC, Design Supply Air Flow Rate [m3/s], 8.25704E-002
 Component Sizing Information, AirLoopHVAC, ZONE RETAIL POINT_OF_SALE A  - STORY GROUND PSZ-AC, Design Supply Air Flow Rate [m3/s], 0.27165
 Component Sizing Information, AirLoopHVAC, ZONE RETAIL POINT_OF_SALE B  - STORY GROUND PSZ-AC, Design Supply Air Flow Rate [m3/s], 3.14651
 Component Sizing Information, AirLoopHVAC, ZONE RETAIL POINT_OF_SALE C  - STORY GROUND PSZ-AC, Design Supply Air Flow Rate [m3/s], 0.27455
 Component Sizing Information, AirLoopHVAC, ZONE RETAIL RETAIL A  - STORY GROUND PSZ-AC, Design Supply Air Flow Rate [m3/s], 2.99369
 Component Sizing Information, AirLoopHVAC, ZONE RETAIL RETAIL A END_A - STORY GROUND PSZ-AC, Design Supply Air Flow Rate [m3/s], 0.24749
 Component Sizing Information, AirLoopHVAC, ZONE RETAIL RETAIL B  - STORY GROUND PSZ-AC, Design Supply Air Flow Rate [m3/s], 30.91637
 Component Sizing Information, AirLoopHVAC, ZONE RETAIL RETAIL B END_A - STORY GROUND PSZ-AC, Design Supply Air Flow Rate [m3/s], 2.88874
 Component Sizing Information, AirLoopHVAC, ZONE RETAIL RETAIL C  - STORY GROUND PSZ-AC, Design Supply Air Flow Rate [m3/s], 3.02347
 Component Sizing Information, AirLoopHVAC, ZONE RETAIL RETAIL C END_A - STORY GROUND PSZ-AC, Design Supply Air Flow Rate [m3/s], 0.23687
!<Controller:MechanicalVentilation>,Name,Availability Schedule Name,Demand Controlled Ventilation {Yes/No},System Outdoor Air Method,Zone Maximum Outdoor Air Fraction,Number of Zones,Zone Name,DSOA Name,DSZAD Name
 Controller:MechanicalVentilation,CONTROLLER MECHANICAL VENTILATION 17,ALWAYS ON DISCRETE,No,ZoneSum,1.00,1,ZONE RETAIL BACK_SPACE A  - STORY GROUND,RETAIL BACK_SPACE VENTILATION,ZONE RETAIL BACK_SPACE A  - STORY GROUND DESIGN SPEC ZONE AIR DIST
 Controller:MechanicalVentilation,CONTROLLER MECHANICAL VENTILATION 2,ALWAYS ON DISCRETE,No,ZoneSum,1.00,1,ZONE RETAIL BACK_SPACE A END_B - STORY GROUND,RETAIL BACK_SPACE VENTILATION,ZONE RETAIL BACK_SPACE A END_B - STORY GROUND DESIGN SPEC ZONE AIR DIST
 Controller:MechanicalVentilation,CONTROLLER MECHANICAL VENTILATION 15,ALWAYS ON DISCRETE,No,ZoneSum,1.00,1,ZONE RETAIL BACK_SPACE B  - STORY GROUND,RETAIL BACK_SPACE VENTILATION,ZONE RETAIL BACK_SPACE B  - STORY GROUND DESIGN SPEC ZONE AIR DIST
 Controller:MechanicalVentilation,CONTROLLER MECHANICAL VENTILATION 18,ALWAYS ON DISCRETE,No,ZoneSum,1.00,1,ZONE RETAIL BACK_SPACE B END_B - STORY GROUND,RETAIL BACK_SPACE VENTILATION,ZONE RETAIL BACK_SPACE B END_B - STORY GROUND DESIGN SPEC ZONE AIR DIST
 Controller:MechanicalVentilation,CONTROLLER MECHANICAL VENTILATION 1,ALWAYS ON DISCRETE,No,ZoneSum,1.00,1,ZONE RETAIL BACK_SPACE C  - STORY GROUND,RETAIL BACK_SPACE VENTILATION,ZONE RETAIL BACK_SPACE C  - STORY GROUND DESIGN SPEC ZONE AIR DIST
 Controller:MechanicalVentilation,CONTROLLER MECHANICAL VENTILATION 11,ALWAYS ON DISCRETE,No,ZoneSum,1.00,1,ZONE RETAIL BACK_SPACE C END_B - STORY GROUND,RETAIL BACK_SPACE VENTILATION,ZONE RETAIL BACK_SPACE C END_B - STORY GROUND DESIGN SPEC ZONE AIR DIST
 Controller:MechanicalVentilation,CONTROLLER MECHANICAL VENTILATION 12,ALWAYS ON DISCRETE,No,ZoneSum,1.00,1,ZONE RETAIL ENTRY A  - STORY GROUND,RETAIL ENTRY VENTILATION,ZONE RETAIL ENTRY A  - STORY GROUND DESIGN SPEC ZONE AIR DIST
 Controller:MechanicalVentilation,CONTROLLER MECHANICAL VENTILATION 10,ALWAYS ON DISCRETE,No,ZoneSum,1.00,1,ZONE RETAIL ENTRY B  - STORY GROUND,RETAIL ENTRY VENTILATION,ZONE RETAIL ENTRY B  - STORY GROUND DESIGN SPEC ZONE AIR DIST
 Controller:MechanicalVentilation,CONTROLLER MECHANICAL VENTILATION 9,ALWAYS ON DISCRETE,No,ZoneSum,1.00,1,ZONE RETAIL ENTRY C  - STORY GROUND,RETAIL ENTRY VENTILATION,ZONE RETAIL ENTRY C  - STORY GROUND DESIGN SPEC ZONE AIR DIST
 Controller:MechanicalVentilation,CONTROLLER MECHANICAL VENTILATION 8,ALWAYS ON DISCRETE,No,ZoneSum,1.00,1,ZONE RETAIL POINT_OF_SALE A  - STORY GROUND,RETAIL POINT_OF_SALE VENTILATION,ZONE RETAIL POINT_OF_SALE A  - STORY GROUND DESIGN SPEC ZONE AIR DIST
 Controller:MechanicalVentilation,CONTROLLER MECHANICAL VENTILATION 7,ALWAYS ON DISCRETE,No,ZoneSum,1.00,1,ZONE RETAIL POINT_OF_SALE B  - STORY GROUND,RETAIL POINT_OF_SALE VENTILATION,ZONE RETAIL POINT_OF_SALE B  - STORY GROUND DESIGN SPEC ZONE AIR DIST
 Controller:MechanicalVentilation,CONTROLLER MECHANICAL VENTILATION 4,ALWAYS ON DISCRETE,No,ZoneSum,1.00,1,ZONE RETAIL POINT_OF_SALE C  - STORY GROUND,RETAIL POINT_OF_SALE VENTILATION,ZONE RETAIL POINT_OF_SALE C  - STORY GROUND DESIGN SPEC ZONE AIR DIST
 Controller:MechanicalVentilation,CONTROLLER MECHANICAL VENTILATION 5,ALWAYS ON DISCRETE,No,ZoneSum,1.00,1,ZONE RETAIL RETAIL A  - STORY GROUND,RETAIL RETAIL VENTILATION,ZONE RETAIL RETAIL A  - STORY GROUND DESIGN SPEC ZONE AIR DIST
 Controller:MechanicalVentilation,CONTROLLER MECHANICAL VENTILATION 13,ALWAYS ON DISCRETE,No,ZoneSum,1.00,1,ZONE RETAIL RETAIL A END_A - STORY GROUND,RETAIL RETAIL VENTILATION,ZONE RETAIL RETAIL A END_A - STORY GROUND DESIGN SPEC ZONE AIR DIST
 Controller:MechanicalVentilation,CONTROLLER MECHANICAL VENTILATION 3,ALWAYS ON DISCRETE,No,ZoneSum,1.00,1,ZONE RETAIL RETAIL B  - STORY GROUND,RETAIL RETAIL VENTILATION,ZONE RETAIL RETAIL B  - STORY GROUND DESIGN SPEC ZONE AIR DIST
 Controller:MechanicalVentilation,CONTROLLER MECHANICAL VENTILATION 16,ALWAYS ON DISCRETE,No,ZoneSum,1.00,1,ZONE RETAIL RETAIL B END_A - STORY GROUND,RETAIL RETAIL VENTILATION,ZONE RETAIL RETAIL B END_A - STORY GROUND DESIGN SPEC ZONE AIR DIST
 Controller:MechanicalVentilation,CONTROLLER MECHANICAL VENTILATION 14,ALWAYS ON DISCRETE,No,ZoneSum,1.00,1,ZONE RETAIL RETAIL C  - STORY GROUND,RETAIL RETAIL VENTILATION,ZONE RETAIL RETAIL C  - STORY GROUND DESIGN SPEC ZONE AIR DIST
 Controller:MechanicalVentilation,CONTROLLER MECHANICAL VENTILATION 6,ALWAYS ON DISCRETE,No,ZoneSum,1.00,1,ZONE RETAIL RETAIL C END_A - STORY GROUND,RETAIL RETAIL VENTILATION,ZONE RETAIL RETAIL C END_A - STORY GROUND DESIGN SPEC ZONE AIR DIST
 Component Sizing Information, Controller:OutdoorAir, ZONE RETAIL BACK_SPACE A  - STORY GROUND PSZ-AC OA SYS CONTROLLER, Maximum Outdoor Air Flow Rate [m3/s], 0.19400
 Component Sizing Information, Coil:Cooling:DX:SingleSpeed, ZONE RETAIL BACK_SPACE A  - STORY GROUND PSZ-AC 1SPD DX AC CLG COIL, Design Size Rated Air Flow Rate [m3/s], 0.19400
 Component Sizing Information, Coil:Cooling:DX:SingleSpeed, ZONE RETAIL BACK_SPACE A  - STORY GROUND PSZ-AC 1SPD DX AC CLG COIL, Design Size Gross Rated Total Cooling Capacity [W], 3325.33582
 Component Sizing Information, Coil:Cooling:DX:SingleSpeed, ZONE RETAIL BACK_SPACE A  - STORY GROUND PSZ-AC 1SPD DX AC CLG COIL, Design Size Gross Rated Sensible Heat Ratio, 0.78606
! <DX Cooling Coil Standard Rating Information>, Component Type, Component Name, Standard Rating (Net) Cooling Capacity {W}, Standard Rated Net COP {W/W}, EER {Btu/W-h}, SEER {Btu/W-h}, IEER {Btu/W-h}
 DX Cooling Coil Standard Rating Information, Coil:Cooling:DX:SingleSpeed, ZONE RETAIL BACK_SPACE A  - STORY GROUND PSZ-AC 1SPD DX AC CLG COIL, 3175.0, 2.52, 8.61, 9.90, 9.46
 Component Sizing Information, Coil:Heating:Fuel, ZONE RETAIL BACK_SPACE A  - STORY GROUND PSZ-AC GAS HTG COIL, Design Size Nominal Capacity [W], 5499.85996
 Component Sizing Information, Coil:Heating:Electric, ZONE RETAIL BACK_SPACE A  - STORY GROUND PSZ-AC ELECTRIC BACKUP HTG COIL, Design Size Nominal Capacity [W], 5499.85996
 Component Sizing Information, Fan:ConstantVolume, ZONE RETAIL BACK_SPACE A  - STORY GROUND PSZ-AC FAN, Design Size Maximum Flow Rate [m3/s], 0.19400
 Component Sizing Information, Controller:OutdoorAir, ZONE RETAIL BACK_SPACE A END_B - STORY GROUND PSZ-AC OA SYS CONTROLLER, Maximum Outdoor Air Flow Rate [m3/s], 0.13521
 Component Sizing Information, Coil:Cooling:DX:SingleSpeed, ZONE RETAIL BACK_SPACE A END_B - STORY GROUND PSZ-AC 1SPD DX AC CLG COIL, Design Size Rated Air Flow Rate [m3/s], 0.13521
 Component Sizing Information, Coil:Cooling:DX:SingleSpeed, ZONE RETAIL BACK_SPACE A END_B - STORY GROUND PSZ-AC 1SPD DX AC CLG COIL, Design Size Gross Rated Total Cooling Capacity [W], 2238.23297
 Component Sizing Information, Coil:Cooling:DX:SingleSpeed, ZONE RETAIL BACK_SPACE A END_B - STORY GROUND PSZ-AC 1SPD DX AC CLG COIL, Design Size Gross Rated Sensible Heat Ratio, 0.79866
 DX Cooling Coil Standard Rating Information, Coil:Cooling:DX:SingleSpeed, ZONE RETAIL BACK_SPACE A END_B - STORY GROUND PSZ-AC 1SPD DX AC CLG COIL, 2133.4, 2.51, 8.56, 9.83, 9.37
 Component Sizing Information, Coil:Heating:Fuel, ZONE RETAIL BACK_SPACE A END_B - STORY GROUND PSZ-AC GAS HTG COIL, Design Size Nominal Capacity [W], 3562.77496
 Component Sizing Information, Coil:Heating:Electric, ZONE RETAIL BACK_SPACE A END_B - STORY GROUND PSZ-AC ELECTRIC BACKUP HTG COIL, Design Size Nominal Capacity [W], 3562.77496
 Component Sizing Information, Fan:ConstantVolume, ZONE RETAIL BACK_SPACE A END_B - STORY GROUND PSZ-AC FAN, Design Size Maximum Flow Rate [m3/s], 0.13521
 Component Sizing Information, Controller:OutdoorAir, ZONE RETAIL BACK_SPACE B  - STORY GROUND PSZ-AC OA SYS CONTROLLER, Maximum Outdoor Air Flow Rate [m3/s], 1.82307
 Component Sizing Information, Coil:Cooling:DX:SingleSpeed, ZONE RETAIL BACK_SPACE B  - STORY GROUND PSZ-AC 1SPD DX AC CLG COIL, Design Size Rated Air Flow Rate [m3/s], 1.82307
 Component Sizing Information, Coil:Cooling:DX:SingleSpeed, ZONE RETAIL BACK_SPACE B  - STORY GROUND PSZ-AC 1SPD DX AC CLG COIL, Design Size Gross Rated Total Cooling Capacity [W], 30178.33331
 Component Sizing Information, Coil:Cooling:DX:SingleSpeed, ZONE RETAIL BACK_SPACE B  - STORY GROUND PSZ-AC 1SPD DX AC CLG COIL, Design Size Gross Rated Sensible Heat Ratio, 0.79866
 DX Cooling Coil Standard Rating Information, Coil:Cooling:DX:SingleSpeed, ZONE RETAIL BACK_SPACE B  - STORY GROUND PSZ-AC 1SPD DX AC CLG COIL, 28765.5, 2.51, 8.56, 9.83, 9.37
 Component Sizing Information, Coil:Heating:Fuel, ZONE RETAIL BACK_SPACE B  - STORY GROUND PSZ-AC GAS HTG COIL, Design Size Nominal Capacity [W], 55970.70668
 Component Sizing Information, Coil:Heating:Electric, ZONE RETAIL BACK_SPACE B  - STORY GROUND PSZ-AC ELECTRIC BACKUP HTG COIL, Design Size Nominal Capacity [W], 55970.70668
 Component Sizing Information, Fan:ConstantVolume, ZONE RETAIL BACK_SPACE B  - STORY GROUND PSZ-AC FAN, Design Size Maximum Flow Rate [m3/s], 1.82307
 Component Sizing Information, Controller:OutdoorAir, ZONE RETAIL BACK_SPACE B END_B - STORY GROUND PSZ-AC OA SYS CONTROLLER, Maximum Outdoor Air Flow Rate [m3/s], 1.24031
 Component Sizing Information, Coil:Cooling:DX:SingleSpeed, ZONE RETAIL BACK_SPACE B END_B - STORY GROUND PSZ-AC 1SPD DX AC CLG COIL, Design Size Rated Air Flow Rate [m3/s], 1.24031
 Component Sizing Information, Coil:Cooling:DX:SingleSpeed, ZONE RETAIL BACK_SPACE B END_B - STORY GROUND PSZ-AC 1SPD DX AC CLG COIL, Design Size Gross Rated Total Cooling Capacity [W], 20531.59902
 Component Sizing Information, Coil:Cooling:DX:SingleSpeed, ZONE RETAIL BACK_SPACE B END_B - STORY GROUND PSZ-AC 1SPD DX AC CLG COIL, Design Size Gross Rated Sensible Heat Ratio, 0.79866
 DX Cooling Coil Standard Rating Information, Coil:Cooling:DX:SingleSpeed, ZONE RETAIL BACK_SPACE B END_B - STORY GROUND PSZ-AC 1SPD DX AC CLG COIL, 19570.4, 2.51, 8.56, 9.83, 9.37
 Component Sizing Information, Coil:Heating:Fuel, ZONE RETAIL BACK_SPACE B END_B - STORY GROUND PSZ-AC GAS HTG COIL, Design Size Nominal Capacity [W], 34653.51919
 Component Sizing Information, Coil:Heating:Electric, ZONE RETAIL BACK_SPACE B END_B - STORY GROUND PSZ-AC ELECTRIC BACKUP HTG COIL, Design Size Nominal Capacity [W], 34653.51919
 Component Sizing Information, Fan:ConstantVolume, ZONE RETAIL BACK_SPACE B END_B - STORY GROUND PSZ-AC FAN, Design Size Maximum Flow Rate [m3/s], 1.24031
 Component Sizing Information, Controller:OutdoorAir, ZONE RETAIL BACK_SPACE C  - STORY GROUND PSZ-AC OA SYS CONTROLLER, Maximum Outdoor Air Flow Rate [m3/s], 0.18868
 Component Sizing Information, Coil:Cooling:DX:SingleSpeed, ZONE RETAIL BACK_SPACE C  - STORY GROUND PSZ-AC 1SPD DX AC CLG COIL, Design Size Rated Air Flow Rate [m3/s], 0.18868
 Component Sizing Information, Coil:Cooling:DX:SingleSpeed, ZONE RETAIL BACK_SPACE C  - STORY GROUND PSZ-AC 1SPD DX AC CLG COIL, Design Size Gross Rated Total Cooling Capacity [W], 3441.22039
 Component Sizing Information, Coil:Cooling:DX:SingleSpeed, ZONE RETAIL BACK_SPACE C  - STORY GROUND PSZ-AC 1SPD DX AC CLG COIL, Design Size Gross Rated Sensible Heat Ratio, 0.76470
 DX Cooling Coil Standard Rating Information, Coil:Cooling:DX:SingleSpeed, ZONE RETAIL BACK_SPACE C  - STORY GROUND PSZ-AC 1SPD DX AC CLG COIL, 3295.0, 2.55, 8.70, 10.01, 9.62
 Component Sizing Information, Coil:Heating:Fuel, ZONE RETAIL BACK_SPACE C  - STORY GROUND PSZ-AC GAS HTG COIL, Design Size Nominal Capacity [W], 5377.54003
 Component Sizing Information, Coil:Heating:Electric, ZONE RETAIL BACK_SPACE C  - STORY GROUND PSZ-AC ELECTRIC BACKUP HTG COIL, Design Size Nominal Capacity [W], 5377.54003
 Component Sizing Information, Fan:ConstantVolume, ZONE RETAIL BACK_SPACE C  - STORY GROUND PSZ-AC FAN, Design Size Maximum Flow Rate [m3/s], 0.18868
 Component Sizing Information, Controller:OutdoorAir, ZONE RETAIL BACK_SPACE C END_B - STORY GROUND PSZ-AC OA SYS CONTROLLER, Maximum Outdoor Air Flow Rate [m3/s], 0.13517
 Component Sizing Information, Coil:Cooling:DX:SingleSpeed, ZONE RETAIL BACK_SPACE C END_B - STORY GROUND PSZ-AC 1SPD DX AC CLG COIL, Design Size Rated Air Flow Rate [m3/s], 0.13517
 Component Sizing Information, Coil:Cooling:DX:SingleSpeed, ZONE RETAIL BACK_SPACE C END_B - STORY GROUND PSZ-AC 1SPD DX AC CLG COIL, Design Size Gross Rated Total Cooling Capacity [W], 2237.58111
 Component Sizing Information, Coil:Cooling:DX:SingleSpeed, ZONE RETAIL BACK_SPACE C END_B - STORY GROUND PSZ-AC 1SPD DX AC CLG COIL, Design Size Gross Rated Sensible Heat Ratio, 0.79866
 DX Cooling Coil Standard Rating Information, Coil:Cooling:DX:SingleSpeed, ZONE RETAIL BACK_SPACE C END_B - STORY GROUND PSZ-AC 1SPD DX AC CLG COIL, 2132.8, 2.51, 8.56, 9.83, 9.37
 Component Sizing Information, Coil:Heating:Fuel, ZONE RETAIL BACK_SPACE C END_B - STORY GROUND PSZ-AC GAS HTG COIL, Design Size Nominal Capacity [W], 3561.86925
 Component Sizing Information, Coil:Heating:Electric, ZONE RETAIL BACK_SPACE C END_B - STORY GROUND PSZ-AC ELECTRIC BACKUP HTG COIL, Design Size Nominal Capacity [W], 3561.86925
 Component Sizing Information, Fan:ConstantVolume, ZONE RETAIL BACK_SPACE C END_B - STORY GROUND PSZ-AC FAN, Design Size Maximum Flow Rate [m3/s], 0.13517
 Component Sizing Information, Controller:OutdoorAir, ZONE RETAIL ENTRY A  - STORY GROUND PSZ-AC OA SYS CONTROLLER, Maximum Outdoor Air Flow Rate [m3/s], 8.20437E-002
 Component Sizing Information, Coil:Cooling:DX:SingleSpeed, ZONE RETAIL ENTRY A  - STORY GROUND PSZ-AC 1SPD DX AC CLG COIL, Design Size Rated Air Flow Rate [m3/s], 8.20437E-002
 Component Sizing Information, Coil:Cooling:DX:SingleSpeed, ZONE RETAIL ENTRY A  - STORY GROUND PSZ-AC 1SPD DX AC CLG COIL, Design Size Gross Rated Total Cooling Capacity [W], 1358.11413
 Component Sizing Information, Coil:Cooling:DX:SingleSpeed, ZONE RETAIL ENTRY A  - STORY GROUND PSZ-AC 1SPD DX AC CLG COIL, Design Size Gross Rated Sensible Heat Ratio, 0.79866
 DX Cooling Coil Standard Rating Information, Coil:Cooling:DX:SingleSpeed, ZONE RETAIL ENTRY A  - STORY GROUND PSZ-AC 1SPD DX AC CLG COIL, 1294.5, 2.51, 8.56, 9.83, 9.37
 Component Sizing Information, Coil:Heating:Fuel, ZONE RETAIL ENTRY A  - STORY GROUND PSZ-AC GAS HTG COIL, Design Size Nominal Capacity [W], 2077.22423
 Component Sizing Information, Coil:Heating:Electric, ZONE RETAIL ENTRY A  - STORY GROUND PSZ-AC ELECTRIC BACKUP HTG COIL, Design Size Nominal Capacity [W], 2077.22423
 Component Sizing Information, Fan:ConstantVolume, ZONE RETAIL ENTRY A  - STORY GROUND PSZ-AC FAN, Design Size Maximum Flow Rate [m3/s], 8.20437E-002
 Component Sizing Information, Controller:OutdoorAir, ZONE RETAIL ENTRY B  - STORY GROUND PSZ-AC OA SYS CONTROLLER, Maximum Outdoor Air Flow Rate [m3/s], 1.26316
 Component Sizing Information, Coil:Cooling:DX:SingleSpeed, ZONE RETAIL ENTRY B  - STORY GROUND PSZ-AC 1SPD DX AC CLG COIL, Design Size Rated Air Flow Rate [m3/s], 1.26316
 Component Sizing Information, Coil:Cooling:DX:SingleSpeed, ZONE RETAIL ENTRY B  - STORY GROUND PSZ-AC 1SPD DX AC CLG COIL, Design Size Gross Rated Total Cooling Capacity [W], 20909.76471
 Component Sizing Information, Coil:Cooling:DX:SingleSpeed, ZONE RETAIL ENTRY B  - STORY GROUND PSZ-AC 1SPD DX AC CLG COIL, Design Size Gross Rated Sensible Heat Ratio, 0.79866
 DX Cooling Coil Standard Rating Information, Coil:Cooling:DX:SingleSpeed, ZONE RETAIL ENTRY B  - STORY GROUND PSZ-AC 1SPD DX AC CLG COIL, 19930.8, 2.51, 8.56, 9.83, 9.37
 Component Sizing Information, Coil:Heating:Fuel, ZONE RETAIL ENTRY B  - STORY GROUND PSZ-AC GAS HTG COIL, Design Size Nominal Capacity [W], 60716.19811
 Component Sizing Information, Coil:Heating:Electric, ZONE RETAIL ENTRY B  - STORY GROUND PSZ-AC ELECTRIC BACKUP HTG COIL, Design Size Nominal Capacity [W], 60716.19811
 Component Sizing Information, Fan:ConstantVolume, ZONE RETAIL ENTRY B  - STORY GROUND PSZ-AC FAN, Design Size Maximum Flow Rate [m3/s], 1.26316
 Component Sizing Information, Controller:OutdoorAir, ZONE RETAIL ENTRY C  - STORY GROUND PSZ-AC OA SYS CONTROLLER, Maximum Outdoor Air Flow Rate [m3/s], 8.25704E-002
 Component Sizing Information, Coil:Cooling:DX:SingleSpeed, ZONE RETAIL ENTRY C  - STORY GROUND PSZ-AC 1SPD DX AC CLG COIL, Design Size Rated Air Flow Rate [m3/s], 8.25704E-002
 Component Sizing Information, Coil:Cooling:DX:SingleSpeed, ZONE RETAIL ENTRY C  - STORY GROUND PSZ-AC 1SPD DX AC CLG COIL, Design Size Gross Rated Total Cooling Capacity [W], 1366.83399
 Component Sizing Information, Coil:Cooling:DX:SingleSpeed, ZONE RETAIL ENTRY C  - STORY GROUND PSZ-AC 1SPD DX AC CLG COIL, Design Size Gross Rated Sensible Heat Ratio, 0.79866
 DX Cooling Coil Standard Rating Information, Coil:Cooling:DX:SingleSpeed, ZONE RETAIL ENTRY C  - STORY GROUND PSZ-AC 1SPD DX AC CLG COIL, 1302.8, 2.51, 8.56, 9.83, 9.37
[...]
 Component Sizing Information, Coil:Cooling:DX:SingleSpeed, ZONE RETAIL RETAIL C  - STORY GROUND PSZ-AC 1SPD DX AC CLG COIL, Design Size Gross Rated Total Cooling Capacity [W], 51142.27210
 Component Sizing Information, Coil:Cooling:DX:SingleSpeed, ZONE RETAIL RETAIL C  - STORY GROUND PSZ-AC 1SPD DX AC CLG COIL, Design Size Gross Rated Sensible Heat Ratio, 0.79080
 DX Cooling Coil Standard Rating Information, Coil:Cooling:DX:SingleSpeed, ZONE RETAIL RETAIL C  - STORY GROUND PSZ-AC 1SPD DX AC CLG COIL, 48799.0, 2.52, 8.59, 9.87, 9.43
 Component Sizing Information, Coil:Heating:Fuel, ZONE RETAIL RETAIL C  - STORY GROUND PSZ-AC GAS HTG COIL, Design Size Nominal Capacity [W], 76102.32067
 Component Sizing Information, Coil:Heating:Electric, ZONE RETAIL RETAIL C  - STORY GROUND PSZ-AC ELECTRIC BACKUP HTG COIL, Design Size Nominal Capacity [W], 76102.32067
 Component Sizing Information, Fan:ConstantVolume, ZONE RETAIL RETAIL C  - STORY GROUND PSZ-AC FAN, Design Size Maximum Flow Rate [m3/s], 3.02347
 Component Sizing Information, Controller:OutdoorAir, ZONE RETAIL RETAIL C END_A - STORY GROUND PSZ-AC OA SYS CONTROLLER, Maximum Outdoor Air Flow Rate [m3/s], 0.23687
 Component Sizing Information, Coil:Cooling:DX:SingleSpeed, ZONE RETAIL RETAIL C END_A - STORY GROUND PSZ-AC 1SPD DX AC CLG COIL, Design Size Rated Air Flow Rate [m3/s], 0.23687
 Component Sizing Information, Coil:Cooling:DX:SingleSpeed, ZONE RETAIL RETAIL C END_A - STORY GROUND PSZ-AC 1SPD DX AC CLG COIL, Design Size Gross Rated Total Cooling Capacity [W], 4104.19255
 Component Sizing Information, Coil:Cooling:DX:SingleSpeed, ZONE RETAIL RETAIL C END_A - STORY GROUND PSZ-AC 1SPD DX AC CLG COIL, Design Size Gross Rated Sensible Heat Ratio, 0.78225
 DX Cooling Coil Standard Rating Information, Coil:Cooling:DX:SingleSpeed, ZONE RETAIL RETAIL C END_A - STORY GROUND PSZ-AC 1SPD DX AC CLG COIL, 3920.6, 2.53, 8.62, 9.92, 9.49
 Component Sizing Information, Coil:Heating:Fuel, ZONE RETAIL RETAIL C END_A - STORY GROUND PSZ-AC GAS HTG COIL, Design Size Nominal Capacity [W], 5911.49584
 Component Sizing Information, Coil:Heating:Electric, ZONE RETAIL RETAIL C END_A - STORY GROUND PSZ-AC ELECTRIC BACKUP HTG COIL, Design Size Nominal Capacity [W], 5911.49584
 Component Sizing Information, Fan:ConstantVolume, ZONE RETAIL RETAIL C END_A - STORY GROUND PSZ-AC FAN, Design Size Maximum Flow Rate [m3/s], 0.23687
! <Environment>,Environment Name,Environment Type, Start Date, End Date, Start DayOfWeek, Duration {#days}, Source:Start DayOfWeek,  Use Daylight Saving, Use Holidays, Apply Weekend Holiday Rule,  Use Rain Values, Use Snow Values
! <Environment:Special Days>, Special Day Name, Special Day Type, Source, Start Date, Duration {#days}
! <Environment:Daylight Saving>, Daylight Saving Indicator, Source, Start Date, End Date
! <Environment:WarmupDays>, NumberofWarmupDays
Environment,CLIMATE ZONE 3 ANN CLG .4% CONDNS DB=>MWB,SizingPeriod:DesignDay,08/21,08/21,SummerDesignDay,1,N/A,N/A,N/A,N/A,N/A,N/A
Environment:Daylight Saving,No,SizingPeriod:DesignDay
! <Environment:Design Day Data>, Max Dry-Bulb Temp {C}, Temp Range {dC}, Temp Range Ind Type, Hum Ind Value at Max Temp, Hum Ind Type,Pressure {Pa}, Wind Direction {deg CW from N}, Wind Speed {m/s}, Clearness, Rain, Snow
! <Environment:Design Day Misc>,DayOfYear,ASHRAE A Coeff,ASHRAE B Coeff,ASHRAE C Coeff,Solar Constant-Annual Variation,Eq of Time {minutes}, Solar Declination Angle {deg}, Solar Model
Environment:Design Day Data,27.70,7.40,DefaultMultipliers,101301,290,4.9,0.00,No,No
Environment:Design Day Misc,233,1106.3,0.2000,0.1216,1.0,-3.33,12.4,ASHRAETau
Environment:WarmupDays,  6
! <Tabular Report>,Style,Unit Conversion
Tabular Report,HTML,None
! <Warmup Convergence Information>,Zone Name,Environment Type/Name,Average Warmup Temperature Difference {deltaC},Std Dev Warmup Temperature Difference {deltaC},Max Temperature Pass/Fail Convergence,Min Temperature Pass/Fail Convergence,Average Warmup Load Difference {W},Std Dev Warmup Load Difference {W},Heating Load Pass/Fail Convergence,Cooling Load Pass/Fail Convergence
 Warmup Convergence Information,ZONE RETAIL BACK_SPACE A  - STORY GROUND,SizingPeriod: CLIMATE ZONE 3 ANN CLG .4% CONDNS DB=>MWB,1.8254215422E-002,7.7187724284E-002,Pass,Pass,0.1845671576,0.9666891168,Pass,Pass
 Warmup Convergence Information,ZONE RETAIL BACK_SPACE A END_B - STORY GROUND,SizingPeriod: CLIMATE ZONE 3 ANN CLG .4% CONDNS DB=>MWB,1.5567683529E-002,4.1040509638E-002,Pass,Pass,4.1223491478E-002,0.1142565893,Pass,Pass
 Warmup Convergence Information,ZONE RETAIL BACK_SPACE B  - STORY GROUND,SizingPeriod: CLIMATE ZONE 3 ANN CLG .4% CONDNS DB=>MWB,3.3789989354E-002,0.1243626980,Pass,Pass,0.2233600235,1.5359756969,Pass,Pass
 Warmup Convergence Information,ZONE RETAIL BACK_SPACE B END_B - STORY GROUND,SizingPeriod: CLIMATE ZONE 3 ANN CLG .4% CONDNS DB=>MWB,1.9976320452E-002,6.8708429960E-002,Pass,Pass,7.9396851699E-002,0.2610378412,Pass,Pass
 Warmup Convergence Information,ZONE RETAIL BACK_SPACE C  - STORY GROUND,SizingPeriod: CLIMATE ZONE 3 ANN CLG .4% CONDNS DB=>MWB,1.8492823340E-002,7.8050325054E-002,Pass,Pass,0.1273463163,0.5188828886,Pass,Pass
 Warmup Convergence Information,ZONE RETAIL BACK_SPACE C END_B - STORY GROUND,SizingPeriod: CLIMATE ZONE 3 ANN CLG .4% CONDNS DB=>MWB,1.5441609207E-002,4.0691838843E-002,Pass,Pass,3.8743670451E-002,0.1123969752,Pass,Pass
 Warmup Convergence Information,ZONE RETAIL ENTRY A  - STORY GROUND,SizingPeriod: CLIMATE ZONE 3 ANN CLG .4% CONDNS DB=>MWB,7.7154971602E-002,0.4576048964,Pass,Pass,0.1250146897,0.7391008412,Pass,Pass
 Warmup Convergence Information,ZONE RETAIL ENTRY B  - STORY GROUND,SizingPeriod: CLIMATE ZONE 3 ANN CLG .4% CONDNS DB=>MWB,7.7154857671E-002,0.4871239422,Pass,Pass,0.1939126245,1.7464124091,Pass,Pass
 Warmup Convergence Information,ZONE RETAIL ENTRY C  - STORY GROUND,SizingPeriod: CLIMATE ZONE 3 ANN CLG .4% CONDNS DB=>MWB,7.7152602534E-002,0.4576609573,Pass,Pass,0.1226232247,0.7276299376,Pass,Pass
 Warmup Convergence Information,ZONE RETAIL POINT_OF_SALE A  - STORY GROUND,SizingPeriod: CLIMATE ZONE 3 ANN CLG .4% CONDNS DB=>MWB,5.7149551968E-002,0.2929634003,Pass,Pass,7.1505524337E-002,0.5994593662,Pass,Pass
 Warmup Convergence Information,ZONE RETAIL POINT_OF_SALE B  - STORY GROUND,SizingPeriod: CLIMATE ZONE 3 ANN CLG .4% CONDNS DB=>MWB,7.1146345056E-002,0.3188421616,Pass,Pass,4.6125353238E-002,0.3475382909,Pass,Pass
 Warmup Convergence Information,ZONE RETAIL POINT_OF_SALE C  - STORY GROUND,SizingPeriod: CLIMATE ZONE 3 ANN CLG .4% CONDNS DB=>MWB,5.7591842661E-002,0.2863300578,Pass,Pass,6.9377803301E-002,0.6075719040,Pass,Pass
 Warmup Convergence Information,ZONE RETAIL RETAIL A  - STORY GROUND,SizingPeriod: CLIMATE ZONE 3 ANN CLG .4% CONDNS DB=>MWB,8.3398186425E-002,0.3572505552,Pass,Pass,0.3957057457,3.8851882298,Pass,Pass
 Warmup Convergence Information,ZONE RETAIL RETAIL A END_A - STORY GROUND,SizingPeriod: CLIMATE ZONE 3 ANN CLG .4% CONDNS DB=>MWB,8.2029027929E-002,0.3688582719,Pass,Pass,0.1780940771,1.2651642471,Pass,Pass
 Warmup Convergence Information,ZONE RETAIL RETAIL B  - STORY GROUND,SizingPeriod: CLIMATE ZONE 3 ANN CLG .4% CONDNS DB=>MWB,8.3390617417E-002,0.3463463965,Pass,Pass,0.1841382811,1.9161618037,Pass,Pass
 Warmup Convergence Information,ZONE RETAIL RETAIL B END_A - STORY GROUND,SizingPeriod: CLIMATE ZONE 3 ANN CLG .4% CONDNS DB=>MWB,8.3411736936E-002,0.3663714866,Pass,Pass,0.4482018220,4.4257040340,Pass,Pass
 Warmup Convergence Information,ZONE RETAIL RETAIL C  - STORY GROUND,SizingPeriod: CLIMATE ZONE 3 ANN CLG .4% CONDNS DB=>MWB,8.3388871691E-002,0.3571389147,Pass,Pass,0.3761814218,3.7002174482,Pass,Pass
 Warmup Convergence Information,ZONE RETAIL RETAIL C END_A - STORY GROUND,SizingPeriod: CLIMATE ZONE 3 ANN CLG .4% CONDNS DB=>MWB,8.2358207577E-002,0.3603413466,Pass,Pass,0.1786022102,1.2656848209,Pass,Pass
Environment,CLIMATE ZONE 3 ANN CLG .4% CONDNS WB=>MDB,SizingPeriod:DesignDay,08/21,08/21,SummerDesignDay,1,N/A,N/A,N/A,N/A,N/A,N/A
Environment:Daylight Saving,No,SizingPeriod:DesignDay
Environment:Design Day Data,25.50,7.40,DefaultMultipliers,101301,290,4.9,0.00,No,No
Environment:Design Day Misc,233,1106.3,0.2000,0.1216,1.0,-3.33,12.4,ASHRAETau
Environment:WarmupDays,  6
 Warmup Convergence Information,ZONE RETAIL BACK_SPACE A  - STORY GROUND,SizingPeriod: CLIMATE ZONE 3 ANN CLG .4% CONDNS WB=>MDB,1.5823910776E-002,4.1515613397E-002,Pass,Pass,0.2282349581,1.5137776731,Pass,Pass
 Warmup Convergence Information,ZONE RETAIL BACK_SPACE A END_B - STORY GROUND,SizingPeriod: CLIMATE ZONE 3 ANN CLG .4% CONDNS WB=>MDB,3.0730214551E-002,7.3435183398E-002,Pass,Pass,5.5512831631E-002,0.1174495448,Pass,Pass
 Warmup Convergence Information,ZONE RETAIL BACK_SPACE B  - STORY GROUND,SizingPeriod: CLIMATE ZONE 3 ANN CLG .4% CONDNS WB=>MDB,1.6096749930E-002,4.8430893930E-002,Pass,Pass,7.4434776473E-002,0.6594758686,Pass,Pass
 Warmup Convergence Information,ZONE RETAIL BACK_SPACE B END_B - STORY GROUND,SizingPeriod: CLIMATE ZONE 3 ANN CLG .4% CONDNS WB=>MDB,2.0942816159E-002,5.8787241744E-002,Pass,Pass,0.1500479851,0.6139606463,Pass,Pass
 Warmup Convergence Information,ZONE RETAIL BACK_SPACE C  - STORY GROUND,SizingPeriod: CLIMATE ZONE 3 ANN CLG .4% CONDNS WB=>MDB,1.5671056906E-002,4.1920234775E-002,Pass,Pass,0.2465516802,1.8065995844,Pass,Pass
 Warmup Convergence Information,ZONE RETAIL BACK_SPACE C END_B - STORY GROUND,SizingPeriod: CLIMATE ZONE 3 ANN CLG .4% CONDNS WB=>MDB,3.0734563172E-002,7.4210645958E-002,Pass,Pass,5.3584276158E-002,0.1162393936,Pass,Pass
 Warmup Convergence Information,ZONE RETAIL ENTRY A  - STORY GROUND,SizingPeriod: CLIMATE ZONE 3 ANN CLG .4% CONDNS WB=>MDB,7.7106408856E-002,0.4412733076,Pass,Pass,0.2413415461,1.5339896334,Pass,Pass
 Warmup Convergence Information,ZONE RETAIL ENTRY B  - STORY GROUND,SizingPeriod: CLIMATE ZONE 3 ANN CLG .4% CONDNS WB=>MDB,7.7148681697E-002,0.4735447691,Pass,Pass,1.0063570904,11.5538898247,Pass,Pass
 Warmup Convergence Information,ZONE RETAIL ENTRY C  - STORY GROUND,SizingPeriod: CLIMATE ZONE 3 ANN CLG .4% CONDNS WB=>MDB,7.7103847960E-002,0.4413078305,Pass,Pass,0.2200104389,1.4436297244,Pass,Pass
 Warmup Convergence Information,ZONE RETAIL POINT_OF_SALE A  - STORY GROUND,SizingPeriod: CLIMATE ZONE 3 ANN CLG .4% CONDNS WB=>MDB,3.7966070634E-002,0.1904021793,Pass,Pass,3.9308868272E-002,0.2659140258,Pass,Pass
 Warmup Convergence Information,ZONE RETAIL POINT_OF_SALE B  - STORY GROUND,SizingPeriod: CLIMATE ZONE 3 ANN CLG .4% CONDNS WB=>MDB,5.3310463399E-002,0.2317418643,Pass,Pass,2.6668478583E-002,0.1799234206,Pass,Pass
 Warmup Convergence Information,ZONE RETAIL POINT_OF_SALE C  - STORY GROUND,SizingPeriod: CLIMATE ZONE 3 ANN CLG .4% CONDNS WB=>MDB,3.8379486194E-002,0.1870235908,Pass,Pass,3.6352115762E-002,0.2678625355,Pass,Pass
 Warmup Convergence Information,ZONE RETAIL RETAIL A  - STORY GROUND,SizingPeriod: CLIMATE ZONE 3 ANN CLG .4% CONDNS WB=>MDB,8.3414307139E-002,0.3162250156,Pass,Pass,1.7081177182,19.8564977962,Pass,Pass
 Warmup Convergence Information,ZONE RETAIL RETAIL A END_A - STORY GROUND,SizingPeriod: CLIMATE ZONE 3 ANN CLG .4% CONDNS WB=>MDB,6.5851015691E-002,0.2854508025,Pass,Pass,0.3059390608,1.4492179733,Pass,Pass
 Warmup Convergence Information,ZONE RETAIL RETAIL B  - STORY GROUND,SizingPeriod: CLIMATE ZONE 3 ANN CLG .4% CONDNS WB=>MDB,8.3390986173E-002,0.3184775580,Pass,Pass,9.9980215171E-002,0.9597461962,Pass,Pass
 Warmup Convergence Information,ZONE RETAIL RETAIL B END_A - STORY GROUND,SizingPeriod: CLIMATE ZONE 3 ANN CLG .4% CONDNS WB=>MDB,8.3429194879E-002,0.3257591116,Pass,Pass,1.1378125440,13.0200221279,Pass,Pass
 Warmup Convergence Information,ZONE RETAIL RETAIL C  - STORY GROUND,SizingPeriod: CLIMATE ZONE 3 ANN CLG .4% CONDNS WB=>MDB,8.3402940478E-002,0.3160497977,Pass,Pass,2.3675450305,27.7559130691,Pass,Pass
 Warmup Convergence Information,ZONE RETAIL RETAIL C END_A - STORY GROUND,SizingPeriod: CLIMATE ZONE 3 ANN CLG .4% CONDNS WB=>MDB,6.6168747902E-002,0.2777190937,Pass,Pass,0.2433492958,1.2594341734,Pass,Pass
Environment,CLIMATE ZONE 3 ANN HTG 99.6% CONDNS DB,SizingPeriod:DesignDay,01/21,01/21,WinterDesignDay,1,N/A,N/A,N/A,N/A,N/A,N/A
Environment:Daylight Saving,No,SizingPeriod:DesignDay
Environment:Design Day Data,2.90,0.00,DefaultMultipliers,101301,50,2.2,0.00,No,No
Environment:Design Day Misc, 21,1229.0,0.1415,5.7310E-002,1.0,-11.15,-20.1,ASHRAEClearSky
Environment:WarmupDays,  6
 Warmup Convergence Information,ZONE RETAIL BACK_SPACE A  - STORY GROUND,SizingPeriod: CLIMATE ZONE 3 ANN HTG 99.6% CONDNS DB,1.2498644095E-013,1.1028018886E-013,Pass,Pass,1.5743193626E-013,1.1963432913E-013,Pass,Pass
 Warmup Convergence Information,ZONE RETAIL BACK_SPACE A END_B - STORY GROUND,SizingPeriod: CLIMATE ZONE 3 ANN HTG 99.6% CONDNS DB,2.3852524894E-013,1.3288593169E-013,Pass,Pass,1.8869368875E-013,8.8004625053E-014,Pass,Pass
 Warmup Convergence Information,ZONE RETAIL BACK_SPACE B  - STORY GROUND,SizingPeriod: CLIMATE ZONE 3 ANN HTG 99.6% CONDNS DB,1.0658141036E-014,2.4911254059E-014,Pass,Pass,3.1611835115E-014,8.5983019370E-014,Pass,Pass
 Warmup Convergence Information,ZONE RETAIL BACK_SPACE B END_B - STORY GROUND,SizingPeriod: CLIMATE ZONE 3 ANN HTG 99.6% CONDNS DB,1.2688615590E-013,9.9183602728E-014,Pass,Pass,1.5085207287E-013,1.1646403470E-013,Pass,Pass
 Warmup Convergence Information,ZONE RETAIL BACK_SPACE C  - STORY GROUND,SizingPeriod: CLIMATE ZONE 3 ANN HTG 99.6% CONDNS DB,1.5409895582E-013,1.1027241717E-013,Pass,Pass,1.7979545328E-013,1.2817698605E-013,Pass,Pass
 Warmup Convergence Information,ZONE RETAIL BACK_SPACE C END_B - STORY GROUND,SizingPeriod: CLIMATE ZONE 3 ANN HTG 99.6% CONDNS DB,1.4800506499E-013,1.4954500782E-013,Pass,Pass,1.6992042257E-013,1.4328751433E-013,Pass,Pass
 Warmup Convergence Information,ZONE RETAIL ENTRY A  - STORY GROUND,SizingPeriod: CLIMATE ZONE 3 ANN HTG 99.6% CONDNS DB,2.3882130841E-014,2.1805918564E-014,Pass,Pass,1.2054545600E-012,1.1156198927E-012,Pass,Pass
 Warmup Convergence Information,ZONE RETAIL ENTRY B  - STORY GROUND,SizingPeriod: CLIMATE ZONE 3 ANN HTG 99.6% CONDNS DB,5.1810407816E-015,2.8358417926E-015,Pass,Pass,2.7531490840E-012,2.8057990010E-012,Pass,Pass
 Warmup Convergence Information,ZONE RETAIL ENTRY C  - STORY GROUND,SizingPeriod: CLIMATE ZONE 3 ANN HTG 99.6% CONDNS DB,2.5140383602E-014,1.6976783673E-014,Pass,Pass,9.1891584565E-013,9.3082544668E-013,Pass,Pass
 Warmup Convergence Information,ZONE RETAIL POINT_OF_SALE A  - STORY GROUND,SizingPeriod: CLIMATE ZONE 3 ANN HTG 99.6% CONDNS DB,4.4359577739E-014,5.0015629026E-014,Pass,Pass,3.0015578176E-013,2.9972195583E-013,Pass,Pass
 Warmup Convergence Information,ZONE RETAIL POINT_OF_SALE B  - STORY GROUND,SizingPeriod: CLIMATE ZONE 3 ANN HTG 99.6% CONDNS DB,4.7616231945E-015,3.0528080223E-015,Pass,Pass,2.4555705720E-012,1.7991393944E-012,Pass,Pass
 Warmup Convergence Information,ZONE RETAIL POINT_OF_SALE C  - STORY GROUND,SizingPeriod: CLIMATE ZONE 3 ANN HTG 99.6% CONDNS DB,2.3931474086E-015,2.2867546746E-015,Pass,Pass,1.3271350859E-013,1.8386195491E-013,Pass,Pass
 Warmup Convergence Information,ZONE RETAIL RETAIL A  - STORY GROUND,SizingPeriod: CLIMATE ZONE 3 ANN HTG 99.6% CONDNS DB,3.0839528462E-015,2.0187056880E-015,Pass,Pass,8.8534689266E-014,1.6646384720E-013,Pass,Pass
 Warmup Convergence Information,ZONE RETAIL RETAIL A END_A - STORY GROUND,SizingPeriod: CLIMATE ZONE 3 ANN HTG 99.6% CONDNS DB,9.0914929905E-014,9.8295680481E-014,Pass,Pass,2.3422694316E-013,1.9194506559E-013,Pass,Pass
 Warmup Convergence Information,ZONE RETAIL RETAIL B  - STORY GROUND,SizingPeriod: CLIMATE ZONE 3 ANN HTG 99.6% CONDNS DB,5.1316975360E-015,4.0110929754E-015,Pass,Pass,3.7959869068E-012,2.8776042458E-012,Pass,Pass
 Warmup Convergence Information,ZONE RETAIL RETAIL B END_A - STORY GROUND,SizingPeriod: CLIMATE ZONE 3 ANN HTG 99.6% CONDNS DB,3.8808462616E-014,3.0354629583E-014,Pass,Pass,1.0888745433E-013,1.5396605815E-013,Pass,Pass
 Warmup Convergence Information,ZONE RETAIL RETAIL C  - STORY GROUND,SizingPeriod: CLIMATE ZONE 3 ANN HTG 99.6% CONDNS DB,2.5165055225E-015,2.5424942207E-015,Pass,Pass,1.7691338868E-013,2.1158292798E-013,Pass,Pass
 Warmup Convergence Information,ZONE RETAIL RETAIL C END_A - STORY GROUND,SizingPeriod: CLIMATE ZONE 3 ANN HTG 99.6% CONDNS DB,3.5823196261E-014,6.3832921584E-014,Pass,Pass,1.5232465407E-013,1.2752917820E-013,Pass,Pass
Environment,RUN PERIOD 1,WeatherFileRunPeriod,01/01,12/31,Thursday,365,Use RunPeriod Specified Day,No,No,No,Yes,Yes
Environment:Daylight Saving,No,RunPeriod Object
Environment:WarmupDays,  6
 Warmup Convergence Information,ZONE RETAIL BACK_SPACE A  - STORY GROUND,RunPeriod: RUN PERIOD 1,0.1166708355,0.4007594631,Pass,Pass,0.1837187546,0.5056420262,Pass,Pass
 Warmup Convergence Information,ZONE RETAIL BACK_SPACE A END_B - STORY GROUND,RunPeriod: RUN PERIOD 1,0.1166732052,0.4556159850,Pass,Pass,0.2708056723,1.0188726685,Pass,Pass
 Warmup Convergence Information,ZONE RETAIL BACK_SPACE B  - STORY GROUND,RunPeriod: RUN PERIOD 1,9.1136304755E-002,0.3543831506,Pass,Pass,0.1765830755,0.3699871240,Pass,Pass
 Warmup Convergence Information,ZONE RETAIL BACK_SPACE B END_B - STORY GROUND,RunPeriod: RUN PERIOD 1,8.1415205593E-002,0.4189300763,Pass,Pass,1.2636195993,13.1041463647,Pass,Pass
 Warmup Convergence Information,ZONE RETAIL BACK_SPACE C  - STORY GROUND,RunPeriod: RUN PERIOD 1,7.9083880238E-002,0.4010109438,Pass,Pass,0.2109516493,0.6009264583,Pass,Pass
 Warmup Convergence Information,ZONE RETAIL BACK_SPACE C END_B - STORY GROUND,RunPeriod: RUN PERIOD 1,7.6643948032E-002,0.4565098294,Pass,Pass,0.3794638481,1.4680586642,Pass,Pass
 Warmup Convergence Information,ZONE RETAIL ENTRY A  - STORY GROUND,RunPeriod: RUN PERIOD 1,0.1768685658,0.4514785253,Pass,Pass,0.1653022253,0.3170812132,Pass,Pass
 Warmup Convergence Information,ZONE RETAIL ENTRY B  - STORY GROUND,RunPeriod: RUN PERIOD 1,0.1738358517,0.4502860784,Pass,Pass,0.3957455716,0.8950615807,Pass,Pass
 Warmup Convergence Information,ZONE RETAIL ENTRY C  - STORY GROUND,RunPeriod: RUN PERIOD 1,0.1457484854,0.4490603769,Pass,Pass,0.2246527633,0.5839688161,Pass,Pass
 Warmup Convergence Information,ZONE RETAIL POINT_OF_SALE A  - STORY GROUND,RunPeriod: RUN PERIOD 1,0.1166704218,0.4579690481,Pass,Pass,0.7038891586,6.7593280385,Pass,Pass
 Warmup Convergence Information,ZONE RETAIL POINT_OF_SALE B  - STORY GROUND,RunPeriod: RUN PERIOD 1,0.1145302868,0.4416684076,Pass,Pass,0.3415480454,2.2517385566,Pass,Pass
 Warmup Convergence Information,ZONE RETAIL POINT_OF_SALE C  - STORY GROUND,RunPeriod: RUN PERIOD 1,0.1066529369,0.4578776251,Pass,Pass,0.1192875218,0.3166904101,Pass,Pass
 Warmup Convergence Information,ZONE RETAIL RETAIL A  - STORY GROUND,RunPeriod: RUN PERIOD 1,0.1172243180,0.4595928318,Pass,Pass,0.3170026285,1.5962713616,Pass,Pass
 Warmup Convergence Information,ZONE RETAIL RETAIL A END_A - STORY GROUND,RunPeriod: RUN PERIOD 1,0.1166822830,0.4597630188,Pass,Pass,0.1492752380,0.2808258391,Pass,Pass
 Warmup Convergence Information,ZONE RETAIL RETAIL B  - STORY GROUND,RunPeriod: RUN PERIOD 1,0.1176668609,0.4438801227,Pass,Pass,0.1606759321,0.4017045736,Pass,Pass
 Warmup Convergence Information,ZONE RETAIL RETAIL B END_A - STORY GROUND,RunPeriod: RUN PERIOD 1,0.1170438371,0.4543930687,Pass,Pass,2.8278867339,32.1775107702,Pass,Pass
 Warmup Convergence Information,ZONE RETAIL RETAIL C  - STORY GROUND,RunPeriod: RUN PERIOD 1,0.1172216130,0.4545577385,Pass,Pass,0.1841168118,0.7437219254,Pass,Pass
 Warmup Convergence Information,ZONE RETAIL RETAIL C END_A - STORY GROUND,RunPeriod: RUN PERIOD 1,0.1168821885,0.4572591255,Pass,Pass,0.2581080327,1.2519862635,Pass,Pass
! <Program Control Information:Threads/Parallel Sims>, Threading Supported,Maximum Number of Threads, Env Set Threads (OMP_NUM_THREADS), EP Env Set Threads (EP_OMP_NUM_THREADS), IDF Set Threads, Number of Threads Used (Interior Radiant Exchange), Number Nominal Surfaces, Number Parallel Sims
Program Control:Threads/Parallel Sims, No,1, N/A, N/A, N/A, N/A, N/A, N/A
End of Data
