Program Version,EnergyPlus, Version 8.7.0-78a111df4a, YMD=2018.03.01 18:55
! <Version>, Version ID
 Version, 8.7
! <Timesteps per Hour>, #TimeSteps, Minutes per TimeStep {minutes}
 Timesteps per Hour,  4, 15
! <System Convergence Limits>, Minimum System TimeStep {minutes}, Max HVAC Iterations, Minimum Plant Iterations, Maximum Plant Iterations
 System Convergence Limits, 1, 20, 2, 8
! <Simulation Control>, Do Zone Sizing, Do System Sizing, Do Plant Sizing, Do Design Days, Do Weather Simulation, Do HVAC Sizing Simulation
 Simulation Control, Yes, Yes, Yes, No, Yes, No
! <Output Reporting Tolerances>, Tolerance for Time Heating Setpoint Not Met, Tolerance for Zone Cooling Setpoint Not Met Time
 Output Reporting Tolerances, 0.200, 0.200, 
! <Site:GroundTemperature:BuildingSurface>,Jan{C},Feb{C},Mar{C},Apr{C},May{C},Jun{C},Jul{C},Aug{C},Sep{C},Oct{C},Nov{C},Dec{C}
 Site:GroundTemperature:BuildingSurface,  18.00,  18.00,  18.00,  18.00,  18.00,  18.00,  18.00,  18.00,  18.00,  18.00,  18.00,  18.00
! <Site:GroundTemperature:FCfactorMethod>,Jan{C},Feb{C},Mar{C},Apr{C},May{C},Jun{C},Jul{C},Aug{C},Sep{C},Oct{C},Nov{C},Dec{C}
 Site:GroundTemperature:FCfactorMethod,  10.94,  10.63,  11.18,  12.06,  14.33,  16.09,  17.28,  17.64,  17.02,  15.66,  13.83,  12.14
! <Site:GroundTemperature:Shallow>,Jan{C},Feb{C},Mar{C},Apr{C},May{C},Jun{C},Jul{C},Aug{C},Sep{C},Oct{C},Nov{C},Dec{C}
 Site:GroundTemperature:Shallow,  13.00,  13.00,  13.00,  13.00,  13.00,  13.00,  13.00,  13.00,  13.00,  13.00,  13.00,  13.00
! <Site:GroundTemperature:Deep>,Jan{C},Feb{C},Mar{C},Apr{C},May{C},Jun{C},Jul{C},Aug{C},Sep{C},Oct{C},Nov{C},Dec{C}
 Site:GroundTemperature:Deep,  16.00,  16.00,  16.00,  16.00,  16.00,  16.00,  16.00,  16.00,  16.00,  16.00,  16.00,  16.00
! <Site:GroundReflectance>,Jan{dimensionless},Feb{dimensionless},Mar{dimensionless},Apr{dimensionless},May{dimensionless},Jun{dimensionless},Jul{dimensionless},Aug{dimensionless},Sep{dimensionless},Oct{dimensionless},Nov{dimensionless},Dec{dimensionless}
 Site:GroundReflectance,  0.20,  0.20,  0.20,  0.20,  0.20,  0.20,  0.20,  0.20,  0.20,  0.20,  0.20,  0.20
! <Site:GroundReflectance:SnowModifier>, Normal, Daylighting {dimensionless}
 Site:GroundReflectance:SnowModifier,   1.000,   1.000
! <Site:GroundReflectance:Snow>,Jan{dimensionless},Feb{dimensionless},Mar{dimensionless},Apr{dimensionless},May{dimensionless},Jun{dimensionless},Jul{dimensionless},Aug{dimensionless},Sep{dimensionless},Oct{dimensionless},Nov{dimensionless},Dec{dimensionless}
 Site:GroundReflectance:Snow,  0.20,  0.20,  0.20,  0.20,  0.20,  0.20,  0.20,  0.20,  0.20,  0.20,  0.20,  0.20
! <Site:GroundReflectance:Snow:Daylighting>,Jan{dimensionless},Feb{dimensionless},Mar{dimensionless},Apr{dimensionless},May{dimensionless},Jun{dimensionless},Jul{dimensionless},Aug{dimensionless},Sep{dimensionless},Oct{dimensionless},Nov{dimensionless},Dec{dimensionless}
 Site:GroundReflectance:Snow:Daylighting,  0.20,  0.20,  0.20,  0.20,  0.20,  0.20,  0.20,  0.20,  0.20,  0.20,  0.20,  0.20
! <Environment:Weather Station>,Wind Sensor Height Above Ground {m},Wind Speed Profile Exponent {},Wind Speed Profile Boundary Layer Thickness {m},Air Temperature Sensor Height Above Ground {m},Wind Speed Modifier Coefficient-Internal,Temperature Modifier Coefficient-Internal
Environment:Weather Station,10.000,0.140,270.000,1.500,1.586,9.750E-003
! <Site:Location>, Location Name, Latitude {N+/S- Deg}, Longitude {E+/W- Deg},  Time Zone Number {GMT+/-}, Elevation {m},  Standard Pressure at Elevation {Pa}, Standard RhoAir at Elevation
Site:Location,Climate Zone 3 CA USA CTZRV2 WMO#=724930,37.70,-122.20,-8.00,2.00,101301,1.2040
! <Building Information>, Building Name,North Axis {deg},Terrain,  Loads Convergence Tolerance Value,Temperature Convergence Tolerance Value,  Solar Distribution,Maximum Number of Warmup Days,Minimum Number of Warmup Days
 Building Information,CEC Pre-1978|SmallOffice,0.000,Suburbs,4.00000E-002,0.40000,FullExterior,25,6
! <Inside Convection Algorithm>, Algorithm {Simple | TARP | CeilingDiffuser | AdaptiveConvectionAlgorithm}
Inside Convection Algorithm,TARP
! <Outside Convection Algorithm>, Algorithm {SimpleCombined | TARP | MoWitt | DOE-2 | AdaptiveConvectionAlgorithm}
Outside Convection Algorithm,DOE-2
! <Sky Radiance Distribution>, Value {Anisotropic}
Sky Radiance Distribution,Anisotropic
! <Zone Air Solution Algorithm>, Value {ThirdOrderBackwardDifference | AnalyticalSolution | EulerMethod}
 Zone Air Solution Algorithm, ThirdOrderBackwardDifference
! <Zone Air Carbon Dioxide Balance Simulation>, Simulation {Yes/No}, Carbon Dioxide Concentration
 Zone Air Carbon Dioxide Balance Simulation, No,N/A
! <Zone Air Generic Contaminant Balance Simulation>, Simulation {Yes/No}, Generic Contaminant Concentration
 Zone Air Generic Contaminant Balance Simulation, No,N/A
! <Zone Air Mass Flow Balance Simulation>, Enforce Mass Balance, Adjust Zone Mixing, Adjust Zone Infiltration {AddInfiltration | AdjustInfiltration | None}, Infiltration Zones {MixingSourceZonesOnly | AllZones}
 Zone Air Mass Flow Balance Simulation, No,N/A,N/A,N/A
! <Environment:Site Atmospheric Variation>,Wind Speed Profile Exponent {},Wind Speed Profile Boundary Layer Thickness {m},Air Temperature Gradient Coefficient {K/m}
Environment:Site Atmospheric Variation,0.220,370.000,6.500000E-003
! <Surface Geometry>,Starting Corner,Vertex Input Direction,Coordinate System,Daylight Reference Point Coordinate System,Rectangular (Simple) Surface Coordinate System
 Surface Geometry,UpperLeftCorner,Counterclockwise,RelativeCoordinateSystem,RelativeCoordinateSystem,RelativeToZoneOrigin
! <Surface Heat Transfer Algorithm>, Value {CTF - ConductionTransferFunction | EMPD - MoisturePenetrationDepthConductionTransferFunction | CondFD - ConductionFiniteDifference | HAMT - CombinedHeatAndMoistureFiniteElement} - Description,Inside Surface Max Temperature Limit{C}, Surface Convection Coefficient Lower Limit {W/m2-K}, Surface Convection Coefficient Upper Limit {W/m2-K}
Surface Heat Transfer Algorithm, CTF - ConductionTransferFunction,200,0.10,1000.0
! <Shading Summary>, Number of Fixed Detached Shades, Number of Building Detached Shades, Number of Attached Shades
 Shading Summary,0,0,0
! <Zone Summary>, Number of Zones, Number of Zone Surfaces, Number of SubSurfaces
 Zone Summary,5,34,4
! <Zone Information>,Zone Name,North Axis {deg},Origin X-Coordinate {m},Origin Y-Coordinate {m},Origin Z-Coordinate {m},Centroid X-Coordinate {m},Centroid Y-Coordinate {m},Centroid Z-Coordinate {m},Type,Zone Multiplier,Zone List Multiplier,Minimum X {m},Maximum X {m},Minimum Y {m},Maximum Y {m},Minimum Z {m},Maximum Z {m},Ceiling Height {m},Volume {m3},Zone Inside Convection Algorithm {Simple-Detailed-CeilingDiffuser-TrombeWall},Zone Outside Convection Algorithm {Simple-Detailed-Tarp-MoWitt-DOE-2-BLAST}, Floor Area {m2},Exterior Gross Wall Area {m2},Exterior Net Wall Area {m2},Exterior Window Area {m2}, Number of Surfaces, Number of SubSurfaces, Number of Shading SubSurfaces,  Part of Total Building Area
 Zone Information, ZONE CORE SPACE - STORY GROUND,0.0,-9.27,-4.66,0.00,2.05E-014,2.30E-015,1.52,1,1,1,-9.27,9.27,-4.66,4.66,0.00,3.05,3.05,526.28,TARP,DOE-2,172.66,0.00,0.00,0.00,6,0,0,Yes
 Zone Information, ZONE EAST PERIMETER SPACE - STORY GROUND,0.0,13.84,9.23,0.00,11.94,-2.03E-015,1.52,1,1,1,9.27,13.84,-9.23,9.23,0.00,3.05,3.05,193.49,TARP,DOE-2,63.48,56.26,47.82,8.44,6,1,0,Yes
 Zone Information, ZONE NORTH PERIMETER SPACE - STORY GROUND,0.0,-13.84,9.23,0.00,2.65E-014,7.19,1.52,1,1,1,-13.84,13.84,4.66,9.23,0.00,3.05,3.05,322.09,TARP,DOE-2,105.67,84.38,71.73,12.66,6,1,0,Yes
 Zone Information, ZONE SOUTH PERIMETER SPACE - STORY GROUND,0.0,13.84,-9.23,0.00,-2.65E-014,-7.19,1.52,1,1,1,-13.84,13.84,-9.23,-4.66,0.00,3.05,3.05,322.09,TARP,DOE-2,105.67,84.38,71.73,12.66,6,1,0,Yes
 Zone Information, ZONE WEST PERIMETER SPACE - STORY GROUND,0.0,-13.84,-9.23,0.00,-11.94,2.03E-015,1.52,1,1,1,-13.84,-9.27,-9.23,9.23,0.00,3.05,3.05,193.49,TARP,DOE-2,63.48,56.26,47.82,8.44,6,1,0,Yes
! <Zone Internal Gains Nominal>,Zone Name, Floor Area {m2},# Occupants,Area per Occupant {m2/person},Occupant per Area {person/m2},Interior Lighting {W/m2},Electric Load {W/m2},Gas Load {W/m2},Other Load {W/m2},Hot Water Eq {W/m2},Steam Equipment {W/m2},Sum Loads per Area {W/m2},Outdoor Controlled Baseboard Heat
 Zone Internal Gains Nominal, ZONE CORE SPACE - STORY GROUND,172.66,18.6,9.290,0.108,21.420,14.639,0.000,0.000,0.000,0.000,36.059,No
 Zone Internal Gains Nominal, ZONE EAST PERIMETER SPACE - STORY GROUND,63.48,6.8,9.290,0.108,21.420,14.639,0.000,0.000,0.000,0.000,36.059,No
 Zone Internal Gains Nominal, ZONE NORTH PERIMETER SPACE - STORY GROUND,105.67,11.4,9.290,0.108,21.420,14.639,0.000,0.000,0.000,0.000,36.059,No
 Zone Internal Gains Nominal, ZONE SOUTH PERIMETER SPACE - STORY GROUND,105.67,11.4,9.290,0.108,21.420,14.639,0.000,0.000,0.000,0.000,36.059,No
 Zone Internal Gains Nominal, ZONE WEST PERIMETER SPACE - STORY GROUND,63.48,6.8,9.290,0.108,21.420,14.639,0.000,0.000,0.000,0.000,36.059,No
! <People Internal Gains Nominal>,Name,Schedule Name,Zone Name,Zone Floor Area {m2},# Zone Occupants,Number of People {},People/Floor Area {person/m2},Floor Area per person {m2/person},Fraction Radiant,Fraction Convected,Sensible Fraction Calculation,Activity level,ASHRAE 55 Warnings,Carbon Dioxide Generation Rate,Nominal Minimum Number of People,Nominal Maximum Number of People
 People Internal Gains Nominal, ZONE CORE SPACE - STORY GROUND OFFICE WHOLEBUILDING - SM OFFICE PEOPLE,OFFICEOCCUPANCY,ZONE CORE SPACE - STORY GROUND,172.66,18.6,18.6,0.108,9.290,0.300,0.700,AutoCalculate,OFFICEPEOPLEACTIVITYLEVEL,No,3.8200E-008,0,18
 People Internal Gains Nominal, ZONE EAST PERIMETER SPACE - STORY GROUND OFFICE WHOLEBUILDING - SM OFFICE PEOPLE,OFFICEOCCUPANCY,ZONE EAST PERIMETER SPACE - STORY GROUND,63.48,6.8,6.8,0.108,9.290,0.300,0.700,AutoCalculate,OFFICEPEOPLEACTIVITYLEVEL,No,3.8200E-008,0,6
 People Internal Gains Nominal, ZONE NORTH PERIMETER SPACE - STORY GROUND OFFICE WHOLEBUILDING - SM OFFICE PEOPLE,OFFICEOCCUPANCY,ZONE NORTH PERIMETER SPACE - STORY GROUND,105.67,11.4,11.4,0.108,9.290,0.300,0.700,AutoCalculate,OFFICEPEOPLEACTIVITYLEVEL,No,3.8200E-008,0,11
 People Internal Gains Nominal, ZONE SOUTH PERIMETER SPACE - STORY GROUND OFFICE WHOLEBUILDING - SM OFFICE PEOPLE,OFFICEOCCUPANCY,ZONE SOUTH PERIMETER SPACE - STORY GROUND,105.67,11.4,11.4,0.108,9.290,0.300,0.700,AutoCalculate,OFFICEPEOPLEACTIVITYLEVEL,No,3.8200E-008,0,11
 People Internal Gains Nominal, ZONE WEST PERIMETER SPACE - STORY GROUND OFFICE WHOLEBUILDING - SM OFFICE PEOPLE,OFFICEOCCUPANCY,ZONE WEST PERIMETER SPACE - STORY GROUND,63.48,6.8,6.8,0.108,9.290,0.300,0.700,AutoCalculate,OFFICEPEOPLEACTIVITYLEVEL,No,3.8200E-008,0,6
! <Lights Internal Gains Nominal>,Name,Schedule Name,Zone Name,Zone Floor Area {m2},# Zone Occupants,Lighting Level {W},Lights/Floor Area {W/m2},Lights per person {W/person},Fraction Return Air,Fraction Radiant,Fraction Short Wave,Fraction Convected,Fraction Replaceable,End-Use Category,Nominal Minimum Lighting Level {W},Nominal Maximum Lighting Level {W}
 Lights Internal Gains Nominal, ZONE CORE SPACE - STORY GROUND OFFICE WHOLEBUILDING - SM OFFICE LIGHTS,OFFICELIGHTS,ZONE CORE SPACE - STORY GROUND,172.66,18.6,3698.464,21.420,199.000,0.000,0.000,0.000,1.000,1.000,General,0.000,3698.464
 Lights Internal Gains Nominal, ZONE EAST PERIMETER SPACE - STORY GROUND OFFICE WHOLEBUILDING - SM OFFICE LIGHTS,OFFICELIGHTS,ZONE EAST PERIMETER SPACE - STORY GROUND,63.48,6.8,1359.757,21.420,199.000,0.000,0.000,0.000,1.000,1.000,General,0.000,1359.757
 Lights Internal Gains Nominal, ZONE NORTH PERIMETER SPACE - STORY GROUND OFFICE WHOLEBUILDING - SM OFFICE LIGHTS,OFFICELIGHTS,ZONE NORTH PERIMETER SPACE - STORY GROUND,105.67,11.4,2263.511,21.420,199.000,0.000,0.000,0.000,1.000,1.000,General,0.000,2263.511
 Lights Internal Gains Nominal, ZONE SOUTH PERIMETER SPACE - STORY GROUND OFFICE WHOLEBUILDING - SM OFFICE LIGHTS,OFFICELIGHTS,ZONE SOUTH PERIMETER SPACE - STORY GROUND,105.67,11.4,2263.511,21.420,199.000,0.000,0.000,0.000,1.000,1.000,General,0.000,2263.511
 Lights Internal Gains Nominal, ZONE WEST PERIMETER SPACE - STORY GROUND OFFICE WHOLEBUILDING - SM OFFICE LIGHTS,OFFICELIGHTS,ZONE WEST PERIMETER SPACE - STORY GROUND,63.48,6.8,1359.757,21.420,199.000,0.000,0.000,0.000,1.000,1.000,General,0.000,1359.757
! <ElectricEquipment Internal Gains Nominal>,Name,Schedule Name,Zone Name,Zone Floor Area {m2},# Zone Occupants,Equipment Level {W},Equipment/Floor Area {W/m2},Equipment per person {W/person},Fraction Latent,Fraction Radiant,Fraction Lost,Fraction Convected,End-Use SubCategory,Nominal Minimum Equipment Level {W},Nominal Maximum Equipment Level {W}
 ElectricEquipment Internal Gains Nominal, ZONE CORE SPACE - STORY GROUND OFFICE WHOLEBUILDING - SM OFFICE ELEC EQUIP,OFFICERECEPTACLE,ZONE CORE SPACE - STORY GROUND,172.66,18.6,2527.593,14.639,136.000,0.000,0.200,0.000,0.800,General,0.000,2527.593
 ElectricEquipment Internal Gains Nominal, ZONE EAST PERIMETER SPACE - STORY GROUND OFFICE WHOLEBUILDING - SM OFFICE ELEC EQUIP,OFFICERECEPTACLE,ZONE EAST PERIMETER SPACE - STORY GROUND,63.48,6.8,929.281,14.639,136.000,0.000,0.200,0.000,0.800,General,0.000,929.281
 ElectricEquipment Internal Gains Nominal, ZONE NORTH PERIMETER SPACE - STORY GROUND OFFICE WHOLEBUILDING - SM OFFICE ELEC EQUIP,OFFICERECEPTACLE,ZONE NORTH PERIMETER SPACE - STORY GROUND,105.67,11.4,1546.922,14.639,136.000,0.000,0.200,0.000,0.800,General,0.000,1546.922
 ElectricEquipment Internal Gains Nominal, ZONE SOUTH PERIMETER SPACE - STORY GROUND OFFICE WHOLEBUILDING - SM OFFICE ELEC EQUIP,OFFICERECEPTACLE,ZONE SOUTH PERIMETER SPACE - STORY GROUND,105.67,11.4,1546.922,14.639,136.000,0.000,0.200,0.000,0.800,General,0.000,1546.922
 ElectricEquipment Internal Gains Nominal, ZONE WEST PERIMETER SPACE - STORY GROUND OFFICE WHOLEBUILDING - SM OFFICE ELEC EQUIP,OFFICERECEPTACLE,ZONE WEST PERIMETER SPACE - STORY GROUND,63.48,6.8,929.281,14.639,136.000,0.000,0.200,0.000,0.800,General,0.000,929.281
! <Shadowing/Sun Position Calculations Annual Simulations>, Calculation Method, Value {days}, Allowable Number Figures in Shadow Overlap {}, Polygon Clipping Algorithm, Sky Diffuse Modeling Algorithm
Shadowing/Sun Position Calculations Annual Simulations,AverageOverDaysInFrequency,20,15000,SutherlandHodgman,SimpleSkyDiffuseModeling
! <Water Heater Information>,Type,Name,Volume {m3},Maximum Capacity {W},Standard Rated Recovery Efficiency, Standard Rated Energy Factor
! <ZoneInfiltration Airflow Stats Nominal>,Name,Schedule Name,Zone Name, Zone Floor Area {m2}, # Zone Occupants,Design Volume Flow Rate {m3/s},Volume Flow Rate/Floor Area {m3/s/m2},Volume Flow Rate/Exterior Surface Area {m3/s/m2},ACH - Air Changes per Hour,Equation A - Constant Term Coefficient {},Equation B - Temperature Term Coefficient {1/C},Equation C - Velocity Term Coefficient {s/m}, Equation D - Velocity Squared Term Coefficient {s2/m2}
 ZoneInfiltration Airflow Stats Nominal, ZONE CORE SPACE - STORY GROUND OFFICE WHOLEBUILDING - SM OFFICE INFILTRATION,OFFICEINFILTRATION,ZONE CORE SPACE - STORY GROUND,172.66,18.6,0.000,0.000,0.000,0.000,1.000,0.000,0.000,0.000
 ZoneInfiltration Airflow Stats Nominal, ZONE EAST PERIMETER SPACE - STORY GROUND OFFICE WHOLEBUILDING - SM OFFICE INFILTRATION,OFFICEINFILTRATION,ZONE EAST PERIMETER SPACE - STORY GROUND,63.48,6.8,6.287E-002,9.904E-004,5.251E-004,1.170,1.000,0.000,0.000,0.000
 ZoneInfiltration Airflow Stats Nominal, ZONE NORTH PERIMETER SPACE - STORY GROUND OFFICE WHOLEBUILDING - SM OFFICE INFILTRATION,OFFICEINFILTRATION,ZONE NORTH PERIMETER SPACE - STORY GROUND,105.67,11.4,9.431E-002,8.924E-004,4.962E-004,1.054,1.000,0.000,0.000,0.000
 ZoneInfiltration Airflow Stats Nominal, ZONE SOUTH PERIMETER SPACE - STORY GROUND OFFICE WHOLEBUILDING - SM OFFICE INFILTRATION,OFFICEINFILTRATION,ZONE SOUTH PERIMETER SPACE - STORY GROUND,105.67,11.4,9.431E-002,8.924E-004,4.962E-004,1.054,1.000,0.000,0.000,0.000
 ZoneInfiltration Airflow Stats Nominal, ZONE WEST PERIMETER SPACE - STORY GROUND OFFICE WHOLEBUILDING - SM OFFICE INFILTRATION,OFFICEINFILTRATION,ZONE WEST PERIMETER SPACE - STORY GROUND,63.48,6.8,6.287E-002,9.904E-004,5.251E-004,1.170,1.000,0.000,0.000,0.000
! <AirFlow Model>, Simple
 AirFlow Model, Simple
! <RoomAir Model>, Zone Name, Mixing/Mundt/UCSDDV/UCSDCV/UCSDUFI/UCSDUFE/User Defined
RoomAir Model,ZONE CORE SPACE - STORY GROUND,Mixing/Well-Stirred
RoomAir Model,ZONE EAST PERIMETER SPACE - STORY GROUND,Mixing/Well-Stirred
RoomAir Model,ZONE NORTH PERIMETER SPACE - STORY GROUND,Mixing/Well-Stirred
RoomAir Model,ZONE SOUTH PERIMETER SPACE - STORY GROUND,Mixing/Well-Stirred
RoomAir Model,ZONE WEST PERIMETER SPACE - STORY GROUND,Mixing/Well-Stirred
! <AirflowNetwork Model:Control>, No Multizone or Distribution/Multizone with Distribution/Multizone without Distribution/Multizone with Distribution only during Fan Operation
AirflowNetwork Model:Control,NoMultizoneOrDistribution
! <Zone Volume Capacitance Multiplier>, Sensible Heat Capacity Multiplier, Moisture Capacity Multiplier, Carbon Dioxide Capacity Multiplier, Generic Contaminant Capacity Multiplier
Zone Volume Capacitance Multiplier,   1.000 ,   1.000,   1.000,   1.000
! <Load Timesteps in Zone Design Calculation Averaging Window>, Value
 Load Timesteps in Zone Design Calculation Averaging Window,    4
! <Heating Sizing Factor Information>, Sizing Factor ID, Value
 Heating Sizing Factor Information, Global,   1.2500    
 Heating Sizing Factor Information, Zone ZONE CORE SPACE - STORY GROUND,   1.2500    
 Heating Sizing Factor Information, Zone ZONE EAST PERIMETER SPACE - STORY GROUND,   1.2500    
 Heating Sizing Factor Information, Zone ZONE NORTH PERIMETER SPACE - STORY GROUND,   1.2500    
 Heating Sizing Factor Information, Zone ZONE SOUTH PERIMETER SPACE - STORY GROUND,   1.2500    
 Heating Sizing Factor Information, Zone ZONE WEST PERIMETER SPACE - STORY GROUND,   1.2500    
! <Cooling Sizing Factor Information>, Sizing Factor ID, Value
 Cooling Sizing Factor Information, Global,   1.1500    
 Cooling Sizing Factor Information, Zone ZONE CORE SPACE - STORY GROUND,   1.1500    
 Cooling Sizing Factor Information, Zone ZONE EAST PERIMETER SPACE - STORY GROUND,   1.1500    
 Cooling Sizing Factor Information, Zone ZONE NORTH PERIMETER SPACE - STORY GROUND,   1.1500    
 Cooling Sizing Factor Information, Zone ZONE SOUTH PERIMETER SPACE - STORY GROUND,   1.1500    
 Cooling Sizing Factor Information, Zone ZONE WEST PERIMETER SPACE - STORY GROUND,   1.1500    
! <Zone Sizing Information>, Zone Name, Load Type, Calc Des Load {W}, User Des Load {W}, Calc Des Air Flow Rate {m3/s}, User Des Air Flow Rate {m3/s}, Design Day Name, Date/Time of Peak, Temperature at Peak {C}, Humidity Ratio at Peak {kgWater/kgDryAir}, Floor Area {m2}, # Occupants, Calc Outdoor Air Flow Rate {m3/s}, Calc DOAS Heat Addition Rate {W}
 Zone Sizing Information, ZONE CORE SPACE - STORY GROUND, Cooling, 8248.60759, 9485.89873, 0.55880, 0.64263, CLIMATE ZONE 3 ANN CLG .4% CONDNS DB=>MWB, 8/21 06:00:00, 20.44800, 9.30032E-003, 172.66257, 18.58524, 0.13157, 0.00000
 Zone Sizing Information, ZONE CORE SPACE - STORY GROUND, Heating, 6011.34832, 7514.18541, 0.24146, 0.30182, CLIMATE ZONE 3 ANN HTG 99.6% CONDNS DB, 1/21 06:00:00, 2.90000, 4.65595E-003, 172.66257, 18.58524, 0.13157, 0.00000
 Zone Sizing Information, ZONE EAST PERIMETER SPACE - STORY GROUND, Cooling, 6406.13009, 7367.04960, 0.47012, 0.54064, CLIMATE ZONE 3 ANN CLG .4% CONDNS DB=>MWB, 8/21 09:30:00, 24.25900, 9.30032E-003, 63.48019, 6.83295, 4.83719E-002, 0.00000
 Zone Sizing Information, ZONE EAST PERIMETER SPACE - STORY GROUND, Heating, 3950.44023, 4938.05028, 0.16344, 0.20430, CLIMATE ZONE 3 ANN HTG 99.6% CONDNS DB, 1/21 06:00:00, 2.90000, 4.65595E-003, 63.48019, 6.83295, 4.83719E-002, 0.00000
 Zone Sizing Information, ZONE NORTH PERIMETER SPACE - STORY GROUND, Cooling, 5518.32175, 6346.07001, 0.40497, 0.46571, CLIMATE ZONE 3 ANN CLG .4% CONDNS DB=>MWB, 8/21 14:30:00, 27.70000, 9.30032E-003, 105.67188, 11.37443, 8.05220E-002, 0.00000
 Zone Sizing Information, ZONE NORTH PERIMETER SPACE - STORY GROUND, Heating, 6118.53264, 7648.16580, 0.25241, 0.31551, CLIMATE ZONE 3 ANN HTG 99.6% CONDNS DB, 1/21 06:00:00, 2.90000, 4.65595E-003, 105.67188, 11.37443, 8.05220E-002, 0.00000
 Zone Sizing Information, ZONE SOUTH PERIMETER SPACE - STORY GROUND, Cooling, 8693.04703, 9997.00409, 0.63795, 0.73364, CLIMATE ZONE 3 ANN CLG .4% CONDNS DB=>MWB, 8/21 13:30:00, 27.51500, 9.30032E-003, 105.67188, 11.37443, 8.05220E-002, 0.00000
 Zone Sizing Information, ZONE SOUTH PERIMETER SPACE - STORY GROUND, Heating, 6124.46756, 7655.58445, 0.25266, 0.31583, CLIMATE ZONE 3 ANN HTG 99.6% CONDNS DB, 1/21 06:00:00, 2.90000, 4.65595E-003, 105.67188, 11.37443, 8.05220E-002, 0.00000
 Zone Sizing Information, ZONE WEST PERIMETER SPACE - STORY GROUND, Cooling, 6915.38575, 7952.69362, 0.50749, 0.58362, CLIMATE ZONE 3 ANN CLG .4% CONDNS DB=>MWB, 8/21 17:00:00, 26.66400, 9.30032E-003, 63.48019, 6.83295, 4.83719E-002, 0.00000
 Zone Sizing Information, ZONE WEST PERIMETER SPACE - STORY GROUND, Heating, 3954.34347, 4942.92933, 0.16361, 0.20451, CLIMATE ZONE 3 ANN HTG 99.6% CONDNS DB, 1/21 06:00:00, 2.90000, 4.65595E-003, 63.48019, 6.83295, 4.83719E-002, 0.00000
! <System Sizing Information>, System Name, Field Description, Value
 System Sizing Information, ZONE CORE SPACE - STORY GROUND PSZ-AC, Calculated Cooling Design Air Flow Rate [m3/s], 0.64263
 System Sizing Information, ZONE CORE SPACE - STORY GROUND PSZ-AC, User Cooling Design Air Flow Rate [m3/s], 0.64263
 System Sizing Information, ZONE CORE SPACE - STORY GROUND PSZ-AC, Calculated Heating Design Air Flow Rate [m3/s], 0.30182
 System Sizing Information, ZONE CORE SPACE - STORY GROUND PSZ-AC, User Heating Design Air Flow Rate [m3/s], 0.30182
 System Sizing Information, ZONE EAST PERIMETER SPACE - STORY GROUND PSZ-AC, Calculated Cooling Design Air Flow Rate [m3/s], 0.54064
 System Sizing Information, ZONE EAST PERIMETER SPACE - STORY GROUND PSZ-AC, User Cooling Design Air Flow Rate [m3/s], 0.54064
 System Sizing Information, ZONE EAST PERIMETER SPACE - STORY GROUND PSZ-AC, Calculated Heating Design Air Flow Rate [m3/s], 0.20430
 System Sizing Information, ZONE EAST PERIMETER SPACE - STORY GROUND PSZ-AC, User Heating Design Air Flow Rate [m3/s], 0.20430
 System Sizing Information, ZONE NORTH PERIMETER SPACE - STORY GROUND PSZ-AC, Calculated Cooling Design Air Flow Rate [m3/s], 0.46571
 System Sizing Information, ZONE NORTH PERIMETER SPACE - STORY GROUND PSZ-AC, User Cooling Design Air Flow Rate [m3/s], 0.46571
 System Sizing Information, ZONE NORTH PERIMETER SPACE - STORY GROUND PSZ-AC, Calculated Heating Design Air Flow Rate [m3/s], 0.31551
 System Sizing Information, ZONE NORTH PERIMETER SPACE - STORY GROUND PSZ-AC, User Heating Design Air Flow Rate [m3/s], 0.31551
 System Sizing Information, ZONE SOUTH PERIMETER SPACE - STORY GROUND PSZ-AC, Calculated Cooling Design Air Flow Rate [m3/s], 0.73364
 System Sizing Information, ZONE SOUTH PERIMETER SPACE - STORY GROUND PSZ-AC, User Cooling Design Air Flow Rate [m3/s], 0.73364
 System Sizing Information, ZONE SOUTH PERIMETER SPACE - STORY GROUND PSZ-AC, Calculated Heating Design Air Flow Rate [m3/s], 0.31583
 System Sizing Information, ZONE SOUTH PERIMETER SPACE - STORY GROUND PSZ-AC, User Heating Design Air Flow Rate [m3/s], 0.31583
 System Sizing Information, ZONE WEST PERIMETER SPACE - STORY GROUND PSZ-AC, Calculated Cooling Design Air Flow Rate [m3/s], 0.58362
 System Sizing Information, ZONE WEST PERIMETER SPACE - STORY GROUND PSZ-AC, User Cooling Design Air Flow Rate [m3/s], 0.58362
 System Sizing Information, ZONE WEST PERIMETER SPACE - STORY GROUND PSZ-AC, Calculated Heating Design Air Flow Rate [m3/s], 0.20451
 System Sizing Information, ZONE WEST PERIMETER SPACE - STORY GROUND PSZ-AC, User Heating Design Air Flow Rate [m3/s], 0.20451
! <Component Sizing Information>, Component Type, Component Name, Input Field Description, Value
 Component Sizing Information, AirTerminal:SingleDuct:Uncontrolled, ZONE CORE SPACE - STORY GROUND PSZ-AC DIFFUSER, Design Size Maximum Air Flow Rate [m3/s], 0.64263
 Component Sizing Information, AirTerminal:SingleDuct:Uncontrolled, ZONE EAST PERIMETER SPACE - STORY GROUND PSZ-AC DIFFUSER, Design Size Maximum Air Flow Rate [m3/s], 0.54064
 Component Sizing Information, AirTerminal:SingleDuct:Uncontrolled, ZONE NORTH PERIMETER SPACE - STORY GROUND PSZ-AC DIFFUSER, Design Size Maximum Air Flow Rate [m3/s], 0.46571
 Component Sizing Information, AirTerminal:SingleDuct:Uncontrolled, ZONE SOUTH PERIMETER SPACE - STORY GROUND PSZ-AC DIFFUSER, Design Size Maximum Air Flow Rate [m3/s], 0.73364
 Component Sizing Information, AirTerminal:SingleDuct:Uncontrolled, ZONE WEST PERIMETER SPACE - STORY GROUND PSZ-AC DIFFUSER, Design Size Maximum Air Flow Rate [m3/s], 0.58362
 Component Sizing Information, AirLoopHVAC, ZONE CORE SPACE - STORY GROUND PSZ-AC, Design Supply Air Flow Rate [m3/s], 0.64263
 Component Sizing Information, AirLoopHVAC, ZONE EAST PERIMETER SPACE - STORY GROUND PSZ-AC, Design Supply Air Flow Rate [m3/s], 0.54064
 Component Sizing Information, AirLoopHVAC, ZONE NORTH PERIMETER SPACE - STORY GROUND PSZ-AC, Design Supply Air Flow Rate [m3/s], 0.46571
 Component Sizing Information, AirLoopHVAC, ZONE SOUTH PERIMETER SPACE - STORY GROUND PSZ-AC, Design Supply Air Flow Rate [m3/s], 0.73364
 Component Sizing Information, AirLoopHVAC, ZONE WEST PERIMETER SPACE - STORY GROUND PSZ-AC, Design Supply Air Flow Rate [m3/s], 0.58362
!<Controller:MechanicalVentilation>,Name,Availability Schedule Name,Demand Controlled Ventilation {Yes/No},System Outdoor Air Method,Zone Maximum Outdoor Air Fraction,Number of Zones,Zone Name,DSOA Name,DSZAD Name
 Controller:MechanicalVentilation,CONTROLLER MECHANICAL VENTILATION 5,ALWAYS ON DISCRETE,No,ZoneSum,1.00,1,ZONE CORE SPACE - STORY GROUND,OFFICE WHOLEBUILDING - SM OFFICE VENTILATION,ZONE CORE SPACE - STORY GROUND DESIGN SPEC ZONE AIR DIST
 Controller:MechanicalVentilation,CONTROLLER MECHANICAL VENTILATION 3,ALWAYS ON DISCRETE,No,ZoneSum,1.00,1,ZONE EAST PERIMETER SPACE - STORY GROUND,OFFICE WHOLEBUILDING - SM OFFICE VENTILATION,ZONE EAST PERIMETER SPACE - STORY GROUND DESIGN SPEC ZONE AIR DIST
 Controller:MechanicalVentilation,CONTROLLER MECHANICAL VENTILATION 2,ALWAYS ON DISCRETE,No,ZoneSum,1.00,1,ZONE NORTH PERIMETER SPACE - STORY GROUND,OFFICE WHOLEBUILDING - SM OFFICE VENTILATION,ZONE NORTH PERIMETER SPACE - STORY GROUND DESIGN SPEC ZONE AIR DIST
 Controller:MechanicalVentilation,CONTROLLER MECHANICAL VENTILATION 1,ALWAYS ON DISCRETE,No,ZoneSum,1.00,1,ZONE SOUTH PERIMETER SPACE - STORY GROUND,OFFICE WHOLEBUILDING - SM OFFICE VENTILATION,ZONE SOUTH PERIMETER SPACE - STORY GROUND DESIGN SPEC ZONE AIR DIST
 Controller:MechanicalVentilation,CONTROLLER MECHANICAL VENTILATION 4,ALWAYS ON DISCRETE,No,ZoneSum,1.00,1,ZONE WEST PERIMETER SPACE - STORY GROUND,OFFICE WHOLEBUILDING - SM OFFICE VENTILATION,ZONE WEST PERIMETER SPACE - STORY GROUND DESIGN SPEC ZONE AIR DIST
 Component Sizing Information, Controller:OutdoorAir, ZONE CORE SPACE - STORY GROUND PSZ-AC OA SYS CONTROLLER, Maximum Outdoor Air Flow Rate [m3/s], 0.64263
 Component Sizing Information, Coil:Cooling:DX:SingleSpeed, ZONE CORE SPACE - STORY GROUND PSZ-AC 1SPD DX AC CLG COIL 36KBTU/HR 6.8EER, Design Size Rated Air Flow Rate [m3/s], 0.64263
 Component Sizing Information, Coil:Cooling:DX:SingleSpeed, ZONE CORE SPACE - STORY GROUND PSZ-AC 1SPD DX AC CLG COIL 36KBTU/HR 6.8EER, Design Size Gross Rated Total Cooling Capacity [W], 10637.73721
 Component Sizing Information, Coil:Cooling:DX:SingleSpeed, ZONE CORE SPACE - STORY GROUND PSZ-AC 1SPD DX AC CLG COIL 36KBTU/HR 6.8EER, Design Size Gross Rated Sensible Heat Ratio, 0.79866
! <DX Cooling Coil Standard Rating Information>, Component Type, Component Name, Standard Rating (Net) Cooling Capacity {W}, Standard Rated Net COP {W/W}, EER {Btu/W-h}, SEER {Btu/W-h}, IEER {Btu/W-h}
 DX Cooling Coil Standard Rating Information, Coil:Cooling:DX:SingleSpeed, ZONE CORE SPACE - STORY GROUND PSZ-AC 1SPD DX AC CLG COIL 36KBTU/HR 6.8EER, 10139.1, 1.99, 6.80, 7.23, 7.07
 Component Sizing Information, Coil:Heating:Fuel, ZONE CORE SPACE - STORY GROUND PSZ-AC GAS HTG COIL, Design Size Nominal Capacity [W], 17949.66697
 Component Sizing Information, Coil:Heating:Electric, ZONE CORE SPACE - STORY GROUND PSZ-AC ELECTRIC BACKUP HTG COIL, Design Size Nominal Capacity [W], 17949.66697
 Component Sizing Information, Fan:ConstantVolume, ZONE CORE SPACE - STORY GROUND PSZ-AC FAN, Design Size Maximum Flow Rate [m3/s], 0.64263
 Component Sizing Information, Controller:OutdoorAir, ZONE EAST PERIMETER SPACE - STORY GROUND PSZ-AC OA SYS CONTROLLER, Maximum Outdoor Air Flow Rate [m3/s], 0.54064
 Component Sizing Information, Coil:Cooling:DX:SingleSpeed, ZONE EAST PERIMETER SPACE - STORY GROUND PSZ-AC 1SPD DX AC CLG COIL 30KBTU/HR 6.8EER, Design Size Rated Air Flow Rate [m3/s], 0.54064
 Component Sizing Information, Coil:Cooling:DX:SingleSpeed, ZONE EAST PERIMETER SPACE - STORY GROUND PSZ-AC 1SPD DX AC CLG COIL 30KBTU/HR 6.8EER, Design Size Gross Rated Total Cooling Capacity [W], 8949.52204
 Component Sizing Information, Coil:Cooling:DX:SingleSpeed, ZONE EAST PERIMETER SPACE - STORY GROUND PSZ-AC 1SPD DX AC CLG COIL 30KBTU/HR 6.8EER, Design Size Gross Rated Sensible Heat Ratio, 0.79866
 DX Cooling Coil Standard Rating Information, Coil:Cooling:DX:SingleSpeed, ZONE EAST PERIMETER SPACE - STORY GROUND PSZ-AC 1SPD DX AC CLG COIL 30KBTU/HR 6.8EER, 8530.0, 1.99, 6.79, 7.22, 7.06
 Component Sizing Information, Coil:Heating:Fuel, ZONE EAST PERIMETER SPACE - STORY GROUND PSZ-AC GAS HTG COIL, Design Size Nominal Capacity [W], 13626.62175
 Component Sizing Information, Coil:Heating:Electric, ZONE EAST PERIMETER SPACE - STORY GROUND PSZ-AC ELECTRIC BACKUP HTG COIL, Design Size Nominal Capacity [W], 13626.62175
 Component Sizing Information, Fan:ConstantVolume, ZONE EAST PERIMETER SPACE - STORY GROUND PSZ-AC FAN, Design Size Maximum Flow Rate [m3/s], 0.54064
 Component Sizing Information, Controller:OutdoorAir, ZONE NORTH PERIMETER SPACE - STORY GROUND PSZ-AC OA SYS CONTROLLER, Maximum Outdoor Air Flow Rate [m3/s], 0.46571
 Component Sizing Information, Coil:Cooling:DX:SingleSpeed, ZONE NORTH PERIMETER SPACE - STORY GROUND PSZ-AC 1SPD DX AC CLG COIL 26KBTU/HR 6.8EER, Design Size Rated Air Flow Rate [m3/s], 0.46571
 Component Sizing Information, Coil:Cooling:DX:SingleSpeed, ZONE NORTH PERIMETER SPACE - STORY GROUND PSZ-AC 1SPD DX AC CLG COIL 26KBTU/HR 6.8EER, Design Size Gross Rated Total Cooling Capacity [W], 7709.23644
 Component Sizing Information, Coil:Cooling:DX:SingleSpeed, ZONE NORTH PERIMETER SPACE - STORY GROUND PSZ-AC 1SPD DX AC CLG COIL 26KBTU/HR 6.8EER, Design Size Gross Rated Sensible Heat Ratio, 0.79866
 DX Cooling Coil Standard Rating Information, Coil:Cooling:DX:SingleSpeed, ZONE NORTH PERIMETER SPACE - STORY GROUND PSZ-AC 1SPD DX AC CLG COIL 26KBTU/HR 6.8EER, 7347.9, 1.99, 6.79, 7.21, 7.06
 Component Sizing Information, Coil:Heating:Fuel, ZONE NORTH PERIMETER SPACE - STORY GROUND PSZ-AC GAS HTG COIL, Design Size Nominal Capacity [W], 12575.33083
 Component Sizing Information, Coil:Heating:Electric, ZONE NORTH PERIMETER SPACE - STORY GROUND PSZ-AC ELECTRIC BACKUP HTG COIL, Design Size Nominal Capacity [W], 12575.33083
 Component Sizing Information, Fan:ConstantVolume, ZONE NORTH PERIMETER SPACE - STORY GROUND PSZ-AC FAN, Design Size Maximum Flow Rate [m3/s], 0.46571
 Component Sizing Information, Controller:OutdoorAir, ZONE SOUTH PERIMETER SPACE - STORY GROUND PSZ-AC OA SYS CONTROLLER, Maximum Outdoor Air Flow Rate [m3/s], 0.73364
 Component Sizing Information, Coil:Cooling:DX:SingleSpeed, ZONE SOUTH PERIMETER SPACE - STORY GROUND PSZ-AC 1SPD DX AC CLG COIL 41KBTU/HR 6.8EER, Design Size Rated Air Flow Rate [m3/s], 0.73364
 Component Sizing Information, Coil:Cooling:DX:SingleSpeed, ZONE SOUTH PERIMETER SPACE - STORY GROUND PSZ-AC 1SPD DX AC CLG COIL 41KBTU/HR 6.8EER, Design Size Gross Rated Total Cooling Capacity [W], 12144.38199
 Component Sizing Information, Coil:Cooling:DX:SingleSpeed, ZONE SOUTH PERIMETER SPACE - STORY GROUND PSZ-AC 1SPD DX AC CLG COIL 41KBTU/HR 6.8EER, Design Size Gross Rated Sensible Heat Ratio, 0.79866
 DX Cooling Coil Standard Rating Information, Coil:Cooling:DX:SingleSpeed, ZONE SOUTH PERIMETER SPACE - STORY GROUND PSZ-AC 1SPD DX AC CLG COIL 41KBTU/HR 6.8EER, 11575.1, 2.00, 6.81, 7.23, 7.08
 Component Sizing Information, Coil:Heating:Fuel, ZONE SOUTH PERIMETER SPACE - STORY GROUND PSZ-AC GAS HTG COIL, Design Size Nominal Capacity [W], 18808.34608
 Component Sizing Information, Coil:Heating:Electric, ZONE SOUTH PERIMETER SPACE - STORY GROUND PSZ-AC ELECTRIC BACKUP HTG COIL, Design Size Nominal Capacity [W], 18808.34608
 Component Sizing Information, Fan:ConstantVolume, ZONE SOUTH PERIMETER SPACE - STORY GROUND PSZ-AC FAN, Design Size Maximum Flow Rate [m3/s], 0.73364
 Component Sizing Information, Controller:OutdoorAir, ZONE WEST PERIMETER SPACE - STORY GROUND PSZ-AC OA SYS CONTROLLER, Maximum Outdoor Air Flow Rate [m3/s], 0.58362
 Component Sizing Information, Coil:Cooling:DX:SingleSpeed, ZONE WEST PERIMETER SPACE - STORY GROUND PSZ-AC 1SPD DX AC CLG COIL 33KBTU/HR 6.8EER, Design Size Rated Air Flow Rate [m3/s], 0.58362
 Component Sizing Information, Coil:Cooling:DX:SingleSpeed, ZONE WEST PERIMETER SPACE - STORY GROUND PSZ-AC 1SPD DX AC CLG COIL 33KBTU/HR 6.8EER, Design Size Gross Rated Total Cooling Capacity [W], 9660.95700
 Component Sizing Information, Coil:Cooling:DX:SingleSpeed, ZONE WEST PERIMETER SPACE - STORY GROUND PSZ-AC 1SPD DX AC CLG COIL 33KBTU/HR 6.8EER, Design Size Gross Rated Sensible Heat Ratio, 0.79866
 DX Cooling Coil Standard Rating Information, Coil:Cooling:DX:SingleSpeed, ZONE WEST PERIMETER SPACE - STORY GROUND PSZ-AC 1SPD DX AC CLG COIL 33KBTU/HR 6.8EER, 9208.1, 1.99, 6.80, 7.22, 7.07
 Component Sizing Information, Coil:Heating:Fuel, ZONE WEST PERIMETER SPACE - STORY GROUND PSZ-AC GAS HTG COIL, Design Size Nominal Capacity [W], 14626.78559
 Component Sizing Information, Coil:Heating:Electric, ZONE WEST PERIMETER SPACE - STORY GROUND PSZ-AC ELECTRIC BACKUP HTG COIL, Design Size Nominal Capacity [W], 14626.78559
 Component Sizing Information, Fan:ConstantVolume, ZONE WEST PERIMETER SPACE - STORY GROUND PSZ-AC FAN, Design Size Maximum Flow Rate [m3/s], 0.58362
Water Heater Information,WaterHeater:Mixed,40.0GAL GAS WATER HEATER - 2KBTU/HR 0.78 THERM EFF 0.78 THERM EFF,0.1514,526.0,0.164,0.8740
 Component Sizing Information, PlantLoop, OFFICE SHARED SERVICE WATER LOOP, Maximum Loop Flow Rate [m3/s], 3.15336E-006
 Component Sizing Information, PlantLoop, OFFICE SHARED SERVICE WATER LOOP, Plant Loop Volume [m3], 3.78404E-004
 Component Sizing Information, Pump:ConstantSpeed, SERVICE WATER LOOP PUMP, Design Flow Rate [m3/s], 3.15336E-006
 Component Sizing Information, Pump:ConstantSpeed, SERVICE WATER LOOP PUMP, Design Power Consumption [W], 0.14647
 Component Sizing Information, WaterHeater:Mixed, 40.0GAL GAS WATER HEATER - 2KBTU/HR 0.78 THERM EFF 0.78 THERM EFF, Use Side Design Flow Rate [m3/s], 3.15336E-006
! <Environment>,Environment Name,Environment Type, Start Date, End Date, Start DayOfWeek, Duration {#days}, Source:Start DayOfWeek,  Use Daylight Saving, Use Holidays, Apply Weekend Holiday Rule,  Use Rain Values, Use Snow Values
! <Environment:Special Days>, Special Day Name, Special Day Type, Source, Start Date, Duration {#days}
! <Environment:Daylight Saving>, Daylight Saving Indicator, Source, Start Date, End Date
! <Environment:WarmupDays>, NumberofWarmupDays
Environment,RUN PERIOD 1,WeatherFileRunPeriod,01/01,12/31,Thursday,365,Use RunPeriod Specified Day,No,No,No,Yes,Yes
Environment:Daylight Saving,No,RunPeriod Object
Environment:WarmupDays,  6
! <Tabular Report>,Style,Unit Conversion
Tabular Report,HTML,None
! <Warmup Convergence Information>,Zone Name,Environment Type/Name,Average Warmup Temperature Difference {deltaC},Std Dev Warmup Temperature Difference {deltaC},Max Temperature Pass/Fail Convergence,Min Temperature Pass/Fail Convergence,Average Warmup Load Difference {W},Std Dev Warmup Load Difference {W},Heating Load Pass/Fail Convergence,Cooling Load Pass/Fail Convergence
 Warmup Convergence Information,ZONE CORE SPACE - STORY GROUND,RunPeriod: RUN PERIOD 1,0.2414278414,0.5477841780,Pass,Pass,4.6881218856,42.9163180039,Pass,Pass
 Warmup Convergence Information,ZONE EAST PERIMETER SPACE - STORY GROUND,RunPeriod: RUN PERIOD 1,0.4171711232,0.8057351232,Pass,Pass,0.4447871610,1.3130707028,Pass,Pass
 Warmup Convergence Information,ZONE NORTH PERIMETER SPACE - STORY GROUND,RunPeriod: RUN PERIOD 1,0.1736164235,0.6208276389,Pass,Pass,0.3621063882,1.4821786208,Pass,Pass
 Warmup Convergence Information,ZONE SOUTH PERIMETER SPACE - STORY GROUND,RunPeriod: RUN PERIOD 1,0.3702824752,0.8504754584,Pass,Pass,0.2776469140,0.4273591283,Pass,Pass
 Warmup Convergence Information,ZONE WEST PERIMETER SPACE - STORY GROUND,RunPeriod: RUN PERIOD 1,0.3874806879,0.7871183813,Pass,Pass,0.3136318571,0.5698534176,Pass,Pass
! <Program Control Information:Threads/Parallel Sims>, Threading Supported,Maximum Number of Threads, Env Set Threads (OMP_NUM_THREADS), EP Env Set Threads (EP_OMP_NUM_THREADS), IDF Set Threads, Number of Threads Used (Interior Radiant Exchange), Number Nominal Surfaces, Number Parallel Sims
Program Control:Threads/Parallel Sims, No,1, N/A, N/A, N/A, N/A, N/A, N/A
End of Data
