Program Version,EnergyPlus, Version 8.7.0-df3c0af5a5, YMD=2017.09.06 14:52
! This file shows details about the branches, nodes, and other
! elements of the flow connections.
! This file is intended for use in "debugging" potential problems
! that may also be detected by the program, but may be more easily
! identified by "eye".
! This file is also intended to support software which draws a
! schematic diagram of the HVAC system.
! ===============================================================
! #Nodes,<Number of Unique Nodes>
 #Nodes,234
! <Node>,<NodeNumber>,<Node Name>,<Node Fluid Type>,<# Times Node Referenced After Definition>
 Node,1,NODE 59,Air,4
 Node,2,NODE 95,Air,4
 Node,3,NODE 215,Air,4
 Node,4,NODE 131,Air,4
 Node,5,NODE 71,Air,4
 Node,6,NODE 179,Air,4
 Node,7,NODE 167,Air,4
 Node,8,NODE 35,Air,4
 Node,9,NODE 227,Air,4
 Node,10,NODE 23,Air,4
 Node,11,NODE 191,Air,4
 Node,12,NODE 107,Air,4
 Node,13,NODE 143,Air,4
 Node,14,NODE 83,Air,4
 Node,15,NODE 119,Air,4
 Node,16,NODE 155,Air,4
 Node,17,NODE 203,Air,4
 Node,18,NODE 47,Air,4
 Node,19,NODE 56,Air,12
 Node,20,NODE 57,Air,3
 Node,21,NODE 92,Air,12
 Node,22,NODE 93,Air,3
 Node,23,NODE 212,Air,12
 Node,24,NODE 213,Air,3
 Node,25,NODE 128,Air,12
 Node,26,NODE 129,Air,3
 Node,27,NODE 68,Air,12
 Node,28,NODE 69,Air,3
 Node,29,NODE 176,Air,12
 Node,30,NODE 177,Air,3
 Node,31,NODE 164,Air,12
 Node,32,NODE 165,Air,3
 Node,33,NODE 32,Air,12
 Node,34,NODE 33,Air,3
 Node,35,NODE 224,Air,12
 Node,36,NODE 225,Air,3
 Node,37,NODE 20,Air,12
 Node,38,NODE 21,Air,3
 Node,39,NODE 188,Air,12
 Node,40,NODE 189,Air,3
 Node,41,NODE 104,Air,12
 Node,42,NODE 105,Air,3
 Node,43,NODE 140,Air,12
 Node,44,NODE 141,Air,3
 Node,45,NODE 80,Air,12
 Node,46,NODE 81,Air,3
 Node,47,NODE 116,Air,12
 Node,48,NODE 117,Air,3
 Node,49,NODE 152,Air,12
 Node,50,NODE 153,Air,3
 Node,51,NODE 200,Air,12
 Node,52,NODE 201,Air,3
 Node,53,NODE 44,Air,12
 Node,54,NODE 45,Air,3
 Node,55,NODE 55,Air,3
 Node,56,NODE 65,Air,6
 Node,57,NODE 64,Air,6
 Node,58,NODE 63,Air,5
 Node,59,NODE 62,Air,9
 Node,60,NODE 91,Air,3
 Node,61,NODE 101,Air,6
 Node,62,NODE 100,Air,6
 Node,63,NODE 99,Air,5
 Node,64,NODE 98,Air,9
 Node,65,NODE 211,Air,3
 Node,66,NODE 221,Air,6
 Node,67,NODE 220,Air,6
 Node,68,NODE 219,Air,5
 Node,69,NODE 218,Air,9
 Node,70,NODE 127,Air,3
 Node,71,NODE 137,Air,6
 Node,72,NODE 136,Air,6
 Node,73,NODE 135,Air,5
 Node,74,NODE 134,Air,9
 Node,75,NODE 67,Air,3
 Node,76,NODE 77,Air,6
 Node,77,NODE 76,Air,6
 Node,78,NODE 75,Air,5
 Node,79,NODE 74,Air,9
 Node,80,NODE 175,Air,3
 Node,81,NODE 185,Air,6
 Node,82,NODE 184,Air,6
 Node,83,NODE 183,Air,5
 Node,84,NODE 182,Air,9
 Node,85,NODE 163,Air,3
 Node,86,NODE 173,Air,6
 Node,87,NODE 172,Air,6
 Node,88,NODE 171,Air,5
 Node,89,NODE 170,Air,9
 Node,90,NODE 31,Air,3
 Node,91,NODE 41,Air,6
 Node,92,NODE 40,Air,6
 Node,93,NODE 39,Air,5
 Node,94,NODE 38,Air,9
 Node,95,NODE 223,Air,3
 Node,96,NODE 233,Air,6
 Node,97,NODE 232,Air,6
 Node,98,NODE 231,Air,5
 Node,99,NODE 230,Air,9
 Node,100,NODE 19,Air,3
 Node,101,NODE 29,Air,6
 Node,102,NODE 28,Air,6
 Node,103,NODE 27,Air,5
 Node,104,NODE 26,Air,9
 Node,105,NODE 187,Air,3
 Node,106,NODE 197,Air,6
 Node,107,NODE 196,Air,6
 Node,108,NODE 195,Air,5
 Node,109,NODE 194,Air,9
 Node,110,NODE 103,Air,3
 Node,111,NODE 113,Air,6
 Node,112,NODE 112,Air,6
 Node,113,NODE 111,Air,5
 Node,114,NODE 110,Air,9
 Node,115,NODE 139,Air,3
 Node,116,NODE 149,Air,6
 Node,117,NODE 148,Air,6
 Node,118,NODE 147,Air,5
 Node,119,NODE 146,Air,9
 Node,120,NODE 79,Air,3
 Node,121,NODE 89,Air,6
 Node,122,NODE 88,Air,6
 Node,123,NODE 87,Air,5
 Node,124,NODE 86,Air,9
 Node,125,NODE 115,Air,3
 Node,126,NODE 125,Air,6
 Node,127,NODE 124,Air,6
 Node,128,NODE 123,Air,5
 Node,129,NODE 122,Air,9
 Node,130,NODE 151,Air,3
 Node,131,NODE 161,Air,6
 Node,132,NODE 160,Air,6
 Node,133,NODE 159,Air,5
 Node,134,NODE 158,Air,9
 Node,135,NODE 199,Air,3
 Node,136,NODE 209,Air,6
 Node,137,NODE 208,Air,6
 Node,138,NODE 207,Air,5
 Node,139,NODE 206,Air,9
 Node,140,NODE 43,Air,3
 Node,141,NODE 53,Air,6
 Node,142,NODE 52,Air,6
 Node,143,NODE 51,Air,5
 Node,144,NODE 50,Air,9
 Node,145,NODE 60,Air,2
 Node,146,NODE 96,Air,2
 Node,147,NODE 216,Air,2
 Node,148,NODE 132,Air,2
 Node,149,NODE 72,Air,2
 Node,150,NODE 180,Air,2
 Node,151,NODE 168,Air,2
 Node,152,NODE 36,Air,2
 Node,153,NODE 228,Air,2
 Node,154,NODE 24,Air,2
 Node,155,NODE 192,Air,2
 Node,156,NODE 108,Air,2
 Node,157,NODE 144,Air,2
 Node,158,NODE 84,Air,2
 Node,159,NODE 120,Air,2
 Node,160,NODE 156,Air,2
 Node,161,NODE 204,Air,2
 Node,162,NODE 48,Air,2
 Node,163,NODE 13,Air,1
 Node,164,NODE 16,Air,1
 Node,165,NODE 14,Air,1
 Node,166,NODE 17,Air,1
 Node,167,NODE 15,Air,1
 Node,168,NODE 18,Air,1
 Node,169,NODE 7,Air,1
 Node,170,NODE 8,Air,1
 Node,171,NODE 9,Air,1
 Node,172,NODE 10,Air,1
 Node,173,NODE 11,Air,1
 Node,174,NODE 12,Air,1
 Node,175,NODE 4,Air,1
 Node,176,NODE 1,Air,1
 Node,177,NODE 5,Air,1
 Node,178,NODE 2,Air,1
 Node,179,NODE 6,Air,1
 Node,180,NODE 3,Air,1
 Node,181,NODE 66,Air,1
 Node,182,NODE 102,Air,1
 Node,183,NODE 222,Air,1
 Node,184,NODE 138,Air,1
 Node,185,NODE 78,Air,1
 Node,186,NODE 186,Air,1
 Node,187,NODE 174,Air,1
 Node,188,NODE 42,Air,1
 Node,189,NODE 234,Air,1
 Node,190,NODE 30,Air,1
 Node,191,NODE 198,Air,1
 Node,192,NODE 114,Air,1
 Node,193,NODE 150,Air,1
 Node,194,NODE 90,Air,1
 Node,195,NODE 126,Air,1
 Node,196,NODE 162,Air,1
 Node,197,NODE 210,Air,1
 Node,198,NODE 54,Air,1
 Node,199,NODE 58,Air,2
 Node,200,NODE 94,Air,2
 Node,201,NODE 214,Air,2
 Node,202,NODE 130,Air,2
 Node,203,NODE 70,Air,2
 Node,204,NODE 178,Air,2
 Node,205,NODE 166,Air,2
 Node,206,NODE 34,Air,2
 Node,207,NODE 226,Air,2
 Node,208,NODE 22,Air,2
 Node,209,NODE 190,Air,2
 Node,210,NODE 106,Air,2
 Node,211,NODE 142,Air,2
 Node,212,NODE 82,Air,2
 Node,213,NODE 118,Air,2
 Node,214,NODE 154,Air,2
 Node,215,NODE 202,Air,2
 Node,216,NODE 46,Air,2
 Node,217,NODE 61,Air,1
 Node,218,NODE 97,Air,1
 Node,219,NODE 217,Air,1
 Node,220,NODE 133,Air,1
 Node,221,NODE 73,Air,1
 Node,222,NODE 181,Air,1
 Node,223,NODE 169,Air,1
 Node,224,NODE 37,Air,1
 Node,225,NODE 229,Air,1
 Node,226,NODE 25,Air,1
 Node,227,NODE 193,Air,1
 Node,228,NODE 109,Air,1
 Node,229,NODE 145,Air,1
 Node,230,NODE 85,Air,1
 Node,231,NODE 121,Air,1
 Node,232,NODE 157,Air,1
 Node,233,NODE 205,Air,1
 Node,234,NODE 49,Air,1
! ===============================================================
! <#Branch Lists>,<Number of Branch Lists>
 #Branch Lists,18
! <Branch List>,<Branch List Count>,<Branch List Name>,<Loop Name>,<Loop Type>,<Number of Branches>
! <Branch>,<Branch Count>,<Branch Name>,<Loop Name>,<Loop Type>,<Branch Inlet Node Name>,<Branch Outlet Node Name>
 Branch List,1,ZONE RETAIL BACK_SPACE A  - STORY GROUND PSZ-AC SUPPLY BRANCHES,ZONE RETAIL BACK_SPACE A  - STORY GROUND PSZ-AC,Air,1
   Branch,1,ZONE RETAIL BACK_SPACE A  - STORY GROUND PSZ-AC MAIN BRANCH,ZONE RETAIL BACK_SPACE A  - STORY GROUND PSZ-AC,Air,NODE 55,NODE 56
 Branch List,2,ZONE RETAIL BACK_SPACE A END_B - STORY GROUND PSZ-AC SUPPLY BRANCHES,ZONE RETAIL BACK_SPACE A END_B - STORY GROUND PSZ-AC,Air,1
   Branch,1,ZONE RETAIL BACK_SPACE A END_B - STORY GROUND PSZ-AC MAIN BRANCH,ZONE RETAIL BACK_SPACE A END_B - STORY GROUND PSZ-AC,Air,NODE 91,NODE 92
 Branch List,3,ZONE RETAIL BACK_SPACE B  - STORY GROUND PSZ-AC SUPPLY BRANCHES,ZONE RETAIL BACK_SPACE B  - STORY GROUND PSZ-AC,Air,1
   Branch,1,ZONE RETAIL BACK_SPACE B  - STORY GROUND PSZ-AC MAIN BRANCH,ZONE RETAIL BACK_SPACE B  - STORY GROUND PSZ-AC,Air,NODE 211,NODE 212
 Branch List,4,ZONE RETAIL BACK_SPACE B END_B - STORY GROUND PSZ-AC SUPPLY BRANCHES,ZONE RETAIL BACK_SPACE B END_B - STORY GROUND PSZ-AC,Air,1
   Branch,1,ZONE RETAIL BACK_SPACE B END_B - STORY GROUND PSZ-AC MAIN BRANCH,ZONE RETAIL BACK_SPACE B END_B - STORY GROUND PSZ-AC,Air,NODE 127,NODE 128
 Branch List,5,ZONE RETAIL BACK_SPACE C  - STORY GROUND PSZ-AC SUPPLY BRANCHES,ZONE RETAIL BACK_SPACE C  - STORY GROUND PSZ-AC,Air,1
   Branch,1,ZONE RETAIL BACK_SPACE C  - STORY GROUND PSZ-AC MAIN BRANCH,ZONE RETAIL BACK_SPACE C  - STORY GROUND PSZ-AC,Air,NODE 67,NODE 68
 Branch List,6,ZONE RETAIL BACK_SPACE C END_B - STORY GROUND PSZ-AC SUPPLY BRANCHES,ZONE RETAIL BACK_SPACE C END_B - STORY GROUND PSZ-AC,Air,1
   Branch,1,ZONE RETAIL BACK_SPACE C END_B - STORY GROUND PSZ-AC MAIN BRANCH,ZONE RETAIL BACK_SPACE C END_B - STORY GROUND PSZ-AC,Air,NODE 175,NODE 176
 Branch List,7,ZONE RETAIL ENTRY A  - STORY GROUND PSZ-AC SUPPLY BRANCHES,ZONE RETAIL ENTRY A  - STORY GROUND PSZ-AC,Air,1
   Branch,1,ZONE RETAIL ENTRY A  - STORY GROUND PSZ-AC MAIN BRANCH,ZONE RETAIL ENTRY A  - STORY GROUND PSZ-AC,Air,NODE 163,NODE 164
 Branch List,8,ZONE RETAIL ENTRY B  - STORY GROUND PSZ-AC SUPPLY BRANCHES,ZONE RETAIL ENTRY B  - STORY GROUND PSZ-AC,Air,1
   Branch,1,ZONE RETAIL ENTRY B  - STORY GROUND PSZ-AC MAIN BRANCH,ZONE RETAIL ENTRY B  - STORY GROUND PSZ-AC,Air,NODE 31,NODE 32
 Branch List,9,ZONE RETAIL ENTRY C  - STORY GROUND PSZ-AC SUPPLY BRANCHES,ZONE RETAIL ENTRY C  - STORY GROUND PSZ-AC,Air,1
   Branch,1,ZONE RETAIL ENTRY C  - STORY GROUND PSZ-AC MAIN BRANCH,ZONE RETAIL ENTRY C  - STORY GROUND PSZ-AC,Air,NODE 223,NODE 224
 Branch List,10,ZONE RETAIL POINT_OF_SALE A  - STORY GROUND PSZ-AC SUPPLY BRANCHES,ZONE RETAIL POINT_OF_SALE A  - STORY GROUND PSZ-AC,Air,1
   Branch,1,ZONE RETAIL POINT_OF_SALE A  - STORY GROUND PSZ-AC MAIN BRANCH,ZONE RETAIL POINT_OF_SALE A  - STORY GROUND PSZ-AC,Air,NODE 19,NODE 20
 Branch List,11,ZONE RETAIL POINT_OF_SALE B  - STORY GROUND PSZ-AC SUPPLY BRANCHES,ZONE RETAIL POINT_OF_SALE B  - STORY GROUND PSZ-AC,Air,1
   Branch,1,ZONE RETAIL POINT_OF_SALE B  - STORY GROUND PSZ-AC MAIN BRANCH,ZONE RETAIL POINT_OF_SALE B  - STORY GROUND PSZ-AC,Air,NODE 187,NODE 188
 Branch List,12,ZONE RETAIL POINT_OF_SALE C  - STORY GROUND PSZ-AC SUPPLY BRANCHES,ZONE RETAIL POINT_OF_SALE C  - STORY GROUND PSZ-AC,Air,1
   Branch,1,ZONE RETAIL POINT_OF_SALE C  - STORY GROUND PSZ-AC MAIN BRANCH,ZONE RETAIL POINT_OF_SALE C  - STORY GROUND PSZ-AC,Air,NODE 103,NODE 104
 Branch List,13,ZONE RETAIL RETAIL A  - STORY GROUND PSZ-AC SUPPLY BRANCHES,ZONE RETAIL RETAIL A  - STORY GROUND PSZ-AC,Air,1
   Branch,1,ZONE RETAIL RETAIL A  - STORY GROUND PSZ-AC MAIN BRANCH,ZONE RETAIL RETAIL A  - STORY GROUND PSZ-AC,Air,NODE 139,NODE 140
 Branch List,14,ZONE RETAIL RETAIL A END_A - STORY GROUND PSZ-AC SUPPLY BRANCHES,ZONE RETAIL RETAIL A END_A - STORY GROUND PSZ-AC,Air,1
   Branch,1,ZONE RETAIL RETAIL A END_A - STORY GROUND PSZ-AC MAIN BRANCH,ZONE RETAIL RETAIL A END_A - STORY GROUND PSZ-AC,Air,NODE 79,NODE 80
 Branch List,15,ZONE RETAIL RETAIL B  - STORY GROUND PSZ-AC SUPPLY BRANCHES,ZONE RETAIL RETAIL B  - STORY GROUND PSZ-AC,Air,1
   Branch,1,ZONE RETAIL RETAIL B  - STORY GROUND PSZ-AC MAIN BRANCH,ZONE RETAIL RETAIL B  - STORY GROUND PSZ-AC,Air,NODE 115,NODE 116
 Branch List,16,ZONE RETAIL RETAIL B END_A - STORY GROUND PSZ-AC SUPPLY BRANCHES,ZONE RETAIL RETAIL B END_A - STORY GROUND PSZ-AC,Air,1
   Branch,1,ZONE RETAIL RETAIL B END_A - STORY GROUND PSZ-AC MAIN BRANCH,ZONE RETAIL RETAIL B END_A - STORY GROUND PSZ-AC,Air,NODE 151,NODE 152
 Branch List,17,ZONE RETAIL RETAIL C  - STORY GROUND PSZ-AC SUPPLY BRANCHES,ZONE RETAIL RETAIL C  - STORY GROUND PSZ-AC,Air,1
   Branch,1,ZONE RETAIL RETAIL C  - STORY GROUND PSZ-AC MAIN BRANCH,ZONE RETAIL RETAIL C  - STORY GROUND PSZ-AC,Air,NODE 199,NODE 200
 Branch List,18,ZONE RETAIL RETAIL C END_A - STORY GROUND PSZ-AC SUPPLY BRANCHES,ZONE RETAIL RETAIL C END_A - STORY GROUND PSZ-AC,Air,1
   Branch,1,ZONE RETAIL RETAIL C END_A - STORY GROUND PSZ-AC MAIN BRANCH,ZONE RETAIL RETAIL C END_A - STORY GROUND PSZ-AC,Air,NODE 43,NODE 44
! ===============================================================
! <#Supply Air Paths>,<Number of Supply Air Paths>
 #Supply Air Paths,18
! <Supply Air Path>,<Supply Air Path Count>,<Supply Air Path Name>,<AirLoopHVAC Name>
! <#Components on Supply Air Path>,<Number of Components>
! <Supply Air Path Component>,<Component Count>,<Component Type>,<Component Name>,<AirLoopHVAC Name>
! <#Outlet Nodes on Supply Air Path Component>,<Number of Nodes>
! <Supply Air Path Component Nodes>,<Node Count>,<Component Type>,<Component Name>,<Inlet Node Name>,<Outlet Node Name>,<AirLoopHVAC Name>
 Supply Air Path,1,ZONE RETAIL BACK_SPACE A  - STORY GROUND PSZ-AC NODE 57 SUPPLY PATH,ZONE RETAIL BACK_SPACE A  - STORY GROUND PSZ-AC
   #Components on Supply Air Path,1
   Supply Air Path Component,1,AIRLOOPHVAC:ZONESPLITTER,AIR LOOP HVAC ZONE SPLITTER 4,ZONE RETAIL BACK_SPACE A  - STORY GROUND PSZ-AC
     #Outlet Nodes on Supply Air Path Component,1
     Supply Air Path Component Nodes,1,AIRLOOPHVAC:ZONESPLITTER,AIR LOOP HVAC ZONE SPLITTER 4,NODE 57,NODE 59,ZONE RETAIL BACK_SPACE A  - STORY GROUND PSZ-AC
! <#Nodes on Supply Air Path>,<Number of Nodes>
! <Supply Air Path Node>,<Node Type>,<Node Count>,<Node Name>,<AirLoopHVAC Name>
#Nodes on Supply Air Path,2
   Supply Air Path Node,Inlet Node,1,NODE 57,ZONE RETAIL BACK_SPACE A  - STORY GROUND PSZ-AC
   Supply Air Path Node,Outlet Node,2,NODE 59,ZONE RETAIL BACK_SPACE A  - STORY GROUND PSZ-AC
 Supply Air Path,2,ZONE RETAIL BACK_SPACE A END_B - STORY GROUND PSZ-AC NODE 93 SUPPLY PATH,ZONE RETAIL BACK_SPACE A END_B - STORY GROUND PSZ-AC
   #Components on Supply Air Path,1
   Supply Air Path Component,1,AIRLOOPHVAC:ZONESPLITTER,AIR LOOP HVAC ZONE SPLITTER 7,ZONE RETAIL BACK_SPACE A END_B - STORY GROUND PSZ-AC
     #Outlet Nodes on Supply Air Path Component,1
     Supply Air Path Component Nodes,1,AIRLOOPHVAC:ZONESPLITTER,AIR LOOP HVAC ZONE SPLITTER 7,NODE 93,NODE 95,ZONE RETAIL BACK_SPACE A END_B - STORY GROUND PSZ-AC
! <#Nodes on Supply Air Path>,<Number of Nodes>
! <Supply Air Path Node>,<Node Type>,<Node Count>,<Node Name>,<AirLoopHVAC Name>
#Nodes on Supply Air Path,2
   Supply Air Path Node,Inlet Node,1,NODE 93,ZONE RETAIL BACK_SPACE A END_B - STORY GROUND PSZ-AC
   Supply Air Path Node,Outlet Node,2,NODE 95,ZONE RETAIL BACK_SPACE A END_B - STORY GROUND PSZ-AC
 Supply Air Path,3,ZONE RETAIL BACK_SPACE B  - STORY GROUND PSZ-AC NODE 213 SUPPLY PATH,ZONE RETAIL BACK_SPACE B  - STORY GROUND PSZ-AC
   #Components on Supply Air Path,1
   Supply Air Path Component,1,AIRLOOPHVAC:ZONESPLITTER,AIR LOOP HVAC ZONE SPLITTER 17,ZONE RETAIL BACK_SPACE B  - STORY GROUND PSZ-AC
     #Outlet Nodes on Supply Air Path Component,1
     Supply Air Path Component Nodes,1,AIRLOOPHVAC:ZONESPLITTER,AIR LOOP HVAC ZONE SPLITTER 17,NODE 213,NODE 215,ZONE RETAIL BACK_SPACE B  - STORY GROUND PSZ-AC
! <#Nodes on Supply Air Path>,<Number of Nodes>
! <Supply Air Path Node>,<Node Type>,<Node Count>,<Node Name>,<AirLoopHVAC Name>
#Nodes on Supply Air Path,2
   Supply Air Path Node,Inlet Node,1,NODE 213,ZONE RETAIL BACK_SPACE B  - STORY GROUND PSZ-AC
   Supply Air Path Node,Outlet Node,2,NODE 215,ZONE RETAIL BACK_SPACE B  - STORY GROUND PSZ-AC
 Supply Air Path,4,ZONE RETAIL BACK_SPACE B END_B - STORY GROUND PSZ-AC NODE 129 SUPPLY PATH,ZONE RETAIL BACK_SPACE B END_B - STORY GROUND PSZ-AC
   #Components on Supply Air Path,1
   Supply Air Path Component,1,AIRLOOPHVAC:ZONESPLITTER,AIR LOOP HVAC ZONE SPLITTER 10,ZONE RETAIL BACK_SPACE B END_B - STORY GROUND PSZ-AC
     #Outlet Nodes on Supply Air Path Component,1
     Supply Air Path Component Nodes,1,AIRLOOPHVAC:ZONESPLITTER,AIR LOOP HVAC ZONE SPLITTER 10,NODE 129,NODE 131,ZONE RETAIL BACK_SPACE B END_B - STORY GROUND PSZ-AC
! <#Nodes on Supply Air Path>,<Number of Nodes>
! <Supply Air Path Node>,<Node Type>,<Node Count>,<Node Name>,<AirLoopHVAC Name>
#Nodes on Supply Air Path,2
   Supply Air Path Node,Inlet Node,1,NODE 129,ZONE RETAIL BACK_SPACE B END_B - STORY GROUND PSZ-AC
   Supply Air Path Node,Outlet Node,2,NODE 131,ZONE RETAIL BACK_SPACE B END_B - STORY GROUND PSZ-AC
 Supply Air Path,5,ZONE RETAIL BACK_SPACE C  - STORY GROUND PSZ-AC NODE 69 SUPPLY PATH,ZONE RETAIL BACK_SPACE C  - STORY GROUND PSZ-AC
   #Components on Supply Air Path,1
   Supply Air Path Component,1,AIRLOOPHVAC:ZONESPLITTER,AIR LOOP HVAC ZONE SPLITTER 5,ZONE RETAIL BACK_SPACE C  - STORY GROUND PSZ-AC
     #Outlet Nodes on Supply Air Path Component,1
     Supply Air Path Component Nodes,1,AIRLOOPHVAC:ZONESPLITTER,AIR LOOP HVAC ZONE SPLITTER 5,NODE 69,NODE 71,ZONE RETAIL BACK_SPACE C  - STORY GROUND PSZ-AC
! <#Nodes on Supply Air Path>,<Number of Nodes>
! <Supply Air Path Node>,<Node Type>,<Node Count>,<Node Name>,<AirLoopHVAC Name>
#Nodes on Supply Air Path,2
   Supply Air Path Node,Inlet Node,1,NODE 69,ZONE RETAIL BACK_SPACE C  - STORY GROUND PSZ-AC
   Supply Air Path Node,Outlet Node,2,NODE 71,ZONE RETAIL BACK_SPACE C  - STORY GROUND PSZ-AC
 Supply Air Path,6,ZONE RETAIL BACK_SPACE C END_B - STORY GROUND PSZ-AC NODE 177 SUPPLY PATH,ZONE RETAIL BACK_SPACE C END_B - STORY GROUND PSZ-AC
   #Components on Supply Air Path,1
   Supply Air Path Component,1,AIRLOOPHVAC:ZONESPLITTER,AIR LOOP HVAC ZONE SPLITTER 14,ZONE RETAIL BACK_SPACE C END_B - STORY GROUND PSZ-AC
     #Outlet Nodes on Supply Air Path Component,1
     Supply Air Path Component Nodes,1,AIRLOOPHVAC:ZONESPLITTER,AIR LOOP HVAC ZONE SPLITTER 14,NODE 177,NODE 179,ZONE RETAIL BACK_SPACE C END_B - STORY GROUND PSZ-AC
! <#Nodes on Supply Air Path>,<Number of Nodes>
! <Supply Air Path Node>,<Node Type>,<Node Count>,<Node Name>,<AirLoopHVAC Name>
#Nodes on Supply Air Path,2
   Supply Air Path Node,Inlet Node,1,NODE 177,ZONE RETAIL BACK_SPACE C END_B - STORY GROUND PSZ-AC
   Supply Air Path Node,Outlet Node,2,NODE 179,ZONE RETAIL BACK_SPACE C END_B - STORY GROUND PSZ-AC
 Supply Air Path,7,ZONE RETAIL ENTRY A  - STORY GROUND PSZ-AC NODE 165 SUPPLY PATH,ZONE RETAIL ENTRY A  - STORY GROUND PSZ-AC
   #Components on Supply Air Path,1
   Supply Air Path Component,1,AIRLOOPHVAC:ZONESPLITTER,AIR LOOP HVAC ZONE SPLITTER 13,ZONE RETAIL ENTRY A  - STORY GROUND PSZ-AC
     #Outlet Nodes on Supply Air Path Component,1
     Supply Air Path Component Nodes,1,AIRLOOPHVAC:ZONESPLITTER,AIR LOOP HVAC ZONE SPLITTER 13,NODE 165,NODE 167,ZONE RETAIL ENTRY A  - STORY GROUND PSZ-AC
! <#Nodes on Supply Air Path>,<Number of Nodes>
! <Supply Air Path Node>,<Node Type>,<Node Count>,<Node Name>,<AirLoopHVAC Name>
#Nodes on Supply Air Path,2
   Supply Air Path Node,Inlet Node,1,NODE 165,ZONE RETAIL ENTRY A  - STORY GROUND PSZ-AC
   Supply Air Path Node,Outlet Node,2,NODE 167,ZONE RETAIL ENTRY A  - STORY GROUND PSZ-AC
 Supply Air Path,8,ZONE RETAIL ENTRY B  - STORY GROUND PSZ-AC NODE 33 SUPPLY PATH,ZONE RETAIL ENTRY B  - STORY GROUND PSZ-AC
   #Components on Supply Air Path,1
   Supply Air Path Component,1,AIRLOOPHVAC:ZONESPLITTER,AIR LOOP HVAC ZONE SPLITTER 2,ZONE RETAIL ENTRY B  - STORY GROUND PSZ-AC
     #Outlet Nodes on Supply Air Path Component,1
     Supply Air Path Component Nodes,1,AIRLOOPHVAC:ZONESPLITTER,AIR LOOP HVAC ZONE SPLITTER 2,NODE 33,NODE 35,ZONE RETAIL ENTRY B  - STORY GROUND PSZ-AC
! <#Nodes on Supply Air Path>,<Number of Nodes>
! <Supply Air Path Node>,<Node Type>,<Node Count>,<Node Name>,<AirLoopHVAC Name>
#Nodes on Supply Air Path,2
   Supply Air Path Node,Inlet Node,1,NODE 33,ZONE RETAIL ENTRY B  - STORY GROUND PSZ-AC
   Supply Air Path Node,Outlet Node,2,NODE 35,ZONE RETAIL ENTRY B  - STORY GROUND PSZ-AC
 Supply Air Path,9,ZONE RETAIL ENTRY C  - STORY GROUND PSZ-AC NODE 225 SUPPLY PATH,ZONE RETAIL ENTRY C  - STORY GROUND PSZ-AC
   #Components on Supply Air Path,1
   Supply Air Path Component,1,AIRLOOPHVAC:ZONESPLITTER,AIR LOOP HVAC ZONE SPLITTER 18,ZONE RETAIL ENTRY C  - STORY GROUND PSZ-AC
     #Outlet Nodes on Supply Air Path Component,1
     Supply Air Path Component Nodes,1,AIRLOOPHVAC:ZONESPLITTER,AIR LOOP HVAC ZONE SPLITTER 18,NODE 225,NODE 227,ZONE RETAIL ENTRY C  - STORY GROUND PSZ-AC
! <#Nodes on Supply Air Path>,<Number of Nodes>
! <Supply Air Path Node>,<Node Type>,<Node Count>,<Node Name>,<AirLoopHVAC Name>
#Nodes on Supply Air Path,2
   Supply Air Path Node,Inlet Node,1,NODE 225,ZONE RETAIL ENTRY C  - STORY GROUND PSZ-AC
   Supply Air Path Node,Outlet Node,2,NODE 227,ZONE RETAIL ENTRY C  - STORY GROUND PSZ-AC
 Supply Air Path,10,ZONE RETAIL POINT_OF_SALE A  - STORY GROUND PSZ-AC NODE 21 SUPPLY PATH,ZONE RETAIL POINT_OF_SALE A  - STORY GROUND PSZ-AC
   #Components on Supply Air Path,1
   Supply Air Path Component,1,AIRLOOPHVAC:ZONESPLITTER,AIR LOOP HVAC ZONE SPLITTER 1,ZONE RETAIL POINT_OF_SALE A  - STORY GROUND PSZ-AC
     #Outlet Nodes on Supply Air Path Component,1
     Supply Air Path Component Nodes,1,AIRLOOPHVAC:ZONESPLITTER,AIR LOOP HVAC ZONE SPLITTER 1,NODE 21,NODE 23,ZONE RETAIL POINT_OF_SALE A  - STORY GROUND PSZ-AC
! <#Nodes on Supply Air Path>,<Number of Nodes>
! <Supply Air Path Node>,<Node Type>,<Node Count>,<Node Name>,<AirLoopHVAC Name>
#Nodes on Supply Air Path,2
   Supply Air Path Node,Inlet Node,1,NODE 21,ZONE RETAIL POINT_OF_SALE A  - STORY GROUND PSZ-AC
   Supply Air Path Node,Outlet Node,2,NODE 23,ZONE RETAIL POINT_OF_SALE A  - STORY GROUND PSZ-AC
 Supply Air Path,11,ZONE RETAIL POINT_OF_SALE B  - STORY GROUND PSZ-AC NODE 189 SUPPLY PATH,ZONE RETAIL POINT_OF_SALE B  - STORY GROUND PSZ-AC
   #Components on Supply Air Path,1
   Supply Air Path Component,1,AIRLOOPHVAC:ZONESPLITTER,AIR LOOP HVAC ZONE SPLITTER 15,ZONE RETAIL POINT_OF_SALE B  - STORY GROUND PSZ-AC
     #Outlet Nodes on Supply Air Path Component,1
     Supply Air Path Component Nodes,1,AIRLOOPHVAC:ZONESPLITTER,AIR LOOP HVAC ZONE SPLITTER 15,NODE 189,NODE 191,ZONE RETAIL POINT_OF_SALE B  - STORY GROUND PSZ-AC
! <#Nodes on Supply Air Path>,<Number of Nodes>
! <Supply Air Path Node>,<Node Type>,<Node Count>,<Node Name>,<AirLoopHVAC Name>
#Nodes on Supply Air Path,2
   Supply Air Path Node,Inlet Node,1,NODE 189,ZONE RETAIL POINT_OF_SALE B  - STORY GROUND PSZ-AC
   Supply Air Path Node,Outlet Node,2,NODE 191,ZONE RETAIL POINT_OF_SALE B  - STORY GROUND PSZ-AC
 Supply Air Path,12,ZONE RETAIL POINT_OF_SALE C  - STORY GROUND PSZ-AC NODE 105 SUPPLY PATH,ZONE RETAIL POINT_OF_SALE C  - STORY GROUND PSZ-AC
   #Components on Supply Air Path,1
   Supply Air Path Component,1,AIRLOOPHVAC:ZONESPLITTER,AIR LOOP HVAC ZONE SPLITTER 8,ZONE RETAIL POINT_OF_SALE C  - STORY GROUND PSZ-AC
     #Outlet Nodes on Supply Air Path Component,1
     Supply Air Path Component Nodes,1,AIRLOOPHVAC:ZONESPLITTER,AIR LOOP HVAC ZONE SPLITTER 8,NODE 105,NODE 107,ZONE RETAIL POINT_OF_SALE C  - STORY GROUND PSZ-AC
! <#Nodes on Supply Air Path>,<Number of Nodes>
! <Supply Air Path Node>,<Node Type>,<Node Count>,<Node Name>,<AirLoopHVAC Name>
#Nodes on Supply Air Path,2
   Supply Air Path Node,Inlet Node,1,NODE 105,ZONE RETAIL POINT_OF_SALE C  - STORY GROUND PSZ-AC
   Supply Air Path Node,Outlet Node,2,NODE 107,ZONE RETAIL POINT_OF_SALE C  - STORY GROUND PSZ-AC
 Supply Air Path,13,ZONE RETAIL RETAIL A  - STORY GROUND PSZ-AC NODE 141 SUPPLY PATH,ZONE RETAIL RETAIL A  - STORY GROUND PSZ-AC
   #Components on Supply Air Path,1
   Supply Air Path Component,1,AIRLOOPHVAC:ZONESPLITTER,AIR LOOP HVAC ZONE SPLITTER 11,ZONE RETAIL RETAIL A  - STORY GROUND PSZ-AC
     #Outlet Nodes on Supply Air Path Component,1
     Supply Air Path Component Nodes,1,AIRLOOPHVAC:ZONESPLITTER,AIR LOOP HVAC ZONE SPLITTER 11,NODE 141,NODE 143,ZONE RETAIL RETAIL A  - STORY GROUND PSZ-AC
! <#Nodes on Supply Air Path>,<Number of Nodes>
! <Supply Air Path Node>,<Node Type>,<Node Count>,<Node Name>,<AirLoopHVAC Name>
#Nodes on Supply Air Path,2
   Supply Air Path Node,Inlet Node,1,NODE 141,ZONE RETAIL RETAIL A  - STORY GROUND PSZ-AC
   Supply Air Path Node,Outlet Node,2,NODE 143,ZONE RETAIL RETAIL A  - STORY GROUND PSZ-AC
 Supply Air Path,14,ZONE RETAIL RETAIL A END_A - STORY GROUND PSZ-AC NODE 81 SUPPLY PATH,ZONE RETAIL RETAIL A END_A - STORY GROUND PSZ-AC
   #Components on Supply Air Path,1
   Supply Air Path Component,1,AIRLOOPHVAC:ZONESPLITTER,AIR LOOP HVAC ZONE SPLITTER 6,ZONE RETAIL RETAIL A END_A - STORY GROUND PSZ-AC
     #Outlet Nodes on Supply Air Path Component,1
     Supply Air Path Component Nodes,1,AIRLOOPHVAC:ZONESPLITTER,AIR LOOP HVAC ZONE SPLITTER 6,NODE 81,NODE 83,ZONE RETAIL RETAIL A END_A - STORY GROUND PSZ-AC
! <#Nodes on Supply Air Path>,<Number of Nodes>
! <Supply Air Path Node>,<Node Type>,<Node Count>,<Node Name>,<AirLoopHVAC Name>
#Nodes on Supply Air Path,2
   Supply Air Path Node,Inlet Node,1,NODE 81,ZONE RETAIL RETAIL A END_A - STORY GROUND PSZ-AC
   Supply Air Path Node,Outlet Node,2,NODE 83,ZONE RETAIL RETAIL A END_A - STORY GROUND PSZ-AC
 Supply Air Path,15,ZONE RETAIL RETAIL B  - STORY GROUND PSZ-AC NODE 117 SUPPLY PATH,ZONE RETAIL RETAIL B  - STORY GROUND PSZ-AC
   #Components on Supply Air Path,1
   Supply Air Path Component,1,AIRLOOPHVAC:ZONESPLITTER,AIR LOOP HVAC ZONE SPLITTER 9,ZONE RETAIL RETAIL B  - STORY GROUND PSZ-AC
     #Outlet Nodes on Supply Air Path Component,1
     Supply Air Path Component Nodes,1,AIRLOOPHVAC:ZONESPLITTER,AIR LOOP HVAC ZONE SPLITTER 9,NODE 117,NODE 119,ZONE RETAIL RETAIL B  - STORY GROUND PSZ-AC
! <#Nodes on Supply Air Path>,<Number of Nodes>
! <Supply Air Path Node>,<Node Type>,<Node Count>,<Node Name>,<AirLoopHVAC Name>
#Nodes on Supply Air Path,2
   Supply Air Path Node,Inlet Node,1,NODE 117,ZONE RETAIL RETAIL B  - STORY GROUND PSZ-AC
   Supply Air Path Node,Outlet Node,2,NODE 119,ZONE RETAIL RETAIL B  - STORY GROUND PSZ-AC
 Supply Air Path,16,ZONE RETAIL RETAIL B END_A - STORY GROUND PSZ-AC NODE 153 SUPPLY PATH,ZONE RETAIL RETAIL B END_A - STORY GROUND PSZ-AC
   #Components on Supply Air Path,1
   Supply Air Path Component,1,AIRLOOPHVAC:ZONESPLITTER,AIR LOOP HVAC ZONE SPLITTER 12,ZONE RETAIL RETAIL B END_A - STORY GROUND PSZ-AC
     #Outlet Nodes on Supply Air Path Component,1
     Supply Air Path Component Nodes,1,AIRLOOPHVAC:ZONESPLITTER,AIR LOOP HVAC ZONE SPLITTER 12,NODE 153,NODE 155,ZONE RETAIL RETAIL B END_A - STORY GROUND PSZ-AC
! <#Nodes on Supply Air Path>,<Number of Nodes>
! <Supply Air Path Node>,<Node Type>,<Node Count>,<Node Name>,<AirLoopHVAC Name>
#Nodes on Supply Air Path,2
   Supply Air Path Node,Inlet Node,1,NODE 153,ZONE RETAIL RETAIL B END_A - STORY GROUND PSZ-AC
   Supply Air Path Node,Outlet Node,2,NODE 155,ZONE RETAIL RETAIL B END_A - STORY GROUND PSZ-AC
 Supply Air Path,17,ZONE RETAIL RETAIL C  - STORY GROUND PSZ-AC NODE 201 SUPPLY PATH,ZONE RETAIL RETAIL C  - STORY GROUND PSZ-AC
   #Components on Supply Air Path,1
   Supply Air Path Component,1,AIRLOOPHVAC:ZONESPLITTER,AIR LOOP HVAC ZONE SPLITTER 16,ZONE RETAIL RETAIL C  - STORY GROUND PSZ-AC
     #Outlet Nodes on Supply Air Path Component,1
     Supply Air Path Component Nodes,1,AIRLOOPHVAC:ZONESPLITTER,AIR LOOP HVAC ZONE SPLITTER 16,NODE 201,NODE 203,ZONE RETAIL RETAIL C  - STORY GROUND PSZ-AC
! <#Nodes on Supply Air Path>,<Number of Nodes>
! <Supply Air Path Node>,<Node Type>,<Node Count>,<Node Name>,<AirLoopHVAC Name>
#Nodes on Supply Air Path,2
   Supply Air Path Node,Inlet Node,1,NODE 201,ZONE RETAIL RETAIL C  - STORY GROUND PSZ-AC
   Supply Air Path Node,Outlet Node,2,NODE 203,ZONE RETAIL RETAIL C  - STORY GROUND PSZ-AC
 Supply Air Path,18,ZONE RETAIL RETAIL C END_A - STORY GROUND PSZ-AC NODE 45 SUPPLY PATH,ZONE RETAIL RETAIL C END_A - STORY GROUND PSZ-AC
   #Components on Supply Air Path,1
   Supply Air Path Component,1,AIRLOOPHVAC:ZONESPLITTER,AIR LOOP HVAC ZONE SPLITTER 3,ZONE RETAIL RETAIL C END_A - STORY GROUND PSZ-AC
     #Outlet Nodes on Supply Air Path Component,1
     Supply Air Path Component Nodes,1,AIRLOOPHVAC:ZONESPLITTER,AIR LOOP HVAC ZONE SPLITTER 3,NODE 45,NODE 47,ZONE RETAIL RETAIL C END_A - STORY GROUND PSZ-AC
! <#Nodes on Supply Air Path>,<Number of Nodes>
! <Supply Air Path Node>,<Node Type>,<Node Count>,<Node Name>,<AirLoopHVAC Name>
#Nodes on Supply Air Path,2
   Supply Air Path Node,Inlet Node,1,NODE 45,ZONE RETAIL RETAIL C END_A - STORY GROUND PSZ-AC
   Supply Air Path Node,Outlet Node,2,NODE 47,ZONE RETAIL RETAIL C END_A - STORY GROUND PSZ-AC
! ===============================================================
! <#Return Air Paths>,<Number of Return Air Paths>
 #Return Air Paths,18
! <Return Air Path>,<Return Air Path Count>,<Return Air Path Name>,<AirLoopHVAC Name>
! <#Components on Return Air Path>,<Number of Components>
! <Return Air Path Component>,<Component Count>,<Component Type>,<Component Name>,<AirLoopHVAC Name>
! <#Inlet Nodes on Return Air Path Component>,<Number of Nodes>
! <Return Air Path Component Nodes>,<Node Count>,<Component Type>,<Component Name>,<Inlet Node Name>,<Outlet Node Name>,<AirLoopHVAC Name>
 Return Air Path,1,ZONE RETAIL BACK_SPACE A  - STORY GROUND PSZ-AC RETURN PATH,ZONE RETAIL BACK_SPACE A  - STORY GROUND PSZ-AC
   #Components on Return Air Path,1
   Return Air Path Component,1,AIRLOOPHVAC:ZONEMIXER,AIR LOOP HVAC ZONE MIXER 4,ZONE RETAIL BACK_SPACE A  - STORY GROUND PSZ-AC
     #Inlet Nodes on Return Air Path Component,1
     Return Air Path Component Nodes,1,AIRLOOPHVAC:ZONEMIXER,AIR LOOP HVAC ZONE MIXER 4,NODE 66,NODE 58,ZONE RETAIL BACK_SPACE A  - STORY GROUND PSZ-AC
! <#Nodes on Return Air Path>,<Number of Nodes>
! <Return Air Path Node>,<Node Type>,<Node Count>,<Node Name>,<AirLoopHVAC Name>
   #Nodes on Return Air Path,2
   Return Air Path Node,Outlet Node,1,NODE 58,ZONE RETAIL BACK_SPACE A  - STORY GROUND PSZ-AC
   Return Air Path Node,Inlet Node,2,NODE 66,ZONE RETAIL BACK_SPACE A  - STORY GROUND PSZ-AC
 Return Air Path,2,ZONE RETAIL BACK_SPACE A END_B - STORY GROUND PSZ-AC RETURN PATH,ZONE RETAIL BACK_SPACE A END_B - STORY GROUND PSZ-AC
   #Components on Return Air Path,1
   Return Air Path Component,1,AIRLOOPHVAC:ZONEMIXER,AIR LOOP HVAC ZONE MIXER 7,ZONE RETAIL BACK_SPACE A END_B - STORY GROUND PSZ-AC
     #Inlet Nodes on Return Air Path Component,1
     Return Air Path Component Nodes,1,AIRLOOPHVAC:ZONEMIXER,AIR LOOP HVAC ZONE MIXER 7,NODE 102,NODE 94,ZONE RETAIL BACK_SPACE A END_B - STORY GROUND PSZ-AC
! <#Nodes on Return Air Path>,<Number of Nodes>
! <Return Air Path Node>,<Node Type>,<Node Count>,<Node Name>,<AirLoopHVAC Name>
   #Nodes on Return Air Path,2
   Return Air Path Node,Outlet Node,1,NODE 94,ZONE RETAIL BACK_SPACE A END_B - STORY GROUND PSZ-AC
   Return Air Path Node,Inlet Node,2,NODE 102,ZONE RETAIL BACK_SPACE A END_B - STORY GROUND PSZ-AC
 Return Air Path,3,ZONE RETAIL BACK_SPACE B  - STORY GROUND PSZ-AC RETURN PATH,ZONE RETAIL BACK_SPACE B  - STORY GROUND PSZ-AC
   #Components on Return Air Path,1
   Return Air Path Component,1,AIRLOOPHVAC:ZONEMIXER,AIR LOOP HVAC ZONE MIXER 17,ZONE RETAIL BACK_SPACE B  - STORY GROUND PSZ-AC
     #Inlet Nodes on Return Air Path Component,1
     Return Air Path Component Nodes,1,AIRLOOPHVAC:ZONEMIXER,AIR LOOP HVAC ZONE MIXER 17,NODE 222,NODE 214,ZONE RETAIL BACK_SPACE B  - STORY GROUND PSZ-AC
! <#Nodes on Return Air Path>,<Number of Nodes>
! <Return Air Path Node>,<Node Type>,<Node Count>,<Node Name>,<AirLoopHVAC Name>
   #Nodes on Return Air Path,2
   Return Air Path Node,Outlet Node,1,NODE 214,ZONE RETAIL BACK_SPACE B  - STORY GROUND PSZ-AC
   Return Air Path Node,Inlet Node,2,NODE 222,ZONE RETAIL BACK_SPACE B  - STORY GROUND PSZ-AC
 Return Air Path,4,ZONE RETAIL BACK_SPACE B END_B - STORY GROUND PSZ-AC RETURN PATH,ZONE RETAIL BACK_SPACE B END_B - STORY GROUND PSZ-AC
   #Components on Return Air Path,1
   Return Air Path Component,1,AIRLOOPHVAC:ZONEMIXER,AIR LOOP HVAC ZONE MIXER 10,ZONE RETAIL BACK_SPACE B END_B - STORY GROUND PSZ-AC
     #Inlet Nodes on Return Air Path Component,1
     Return Air Path Component Nodes,1,AIRLOOPHVAC:ZONEMIXER,AIR LOOP HVAC ZONE MIXER 10,NODE 138,NODE 130,ZONE RETAIL BACK_SPACE B END_B - STORY GROUND PSZ-AC
! <#Nodes on Return Air Path>,<Number of Nodes>
! <Return Air Path Node>,<Node Type>,<Node Count>,<Node Name>,<AirLoopHVAC Name>
   #Nodes on Return Air Path,2
   Return Air Path Node,Outlet Node,1,NODE 130,ZONE RETAIL BACK_SPACE B END_B - STORY GROUND PSZ-AC
   Return Air Path Node,Inlet Node,2,NODE 138,ZONE RETAIL BACK_SPACE B END_B - STORY GROUND PSZ-AC
 Return Air Path,5,ZONE RETAIL BACK_SPACE C  - STORY GROUND PSZ-AC RETURN PATH,ZONE RETAIL BACK_SPACE C  - STORY GROUND PSZ-AC
   #Components on Return Air Path,1
   Return Air Path Component,1,AIRLOOPHVAC:ZONEMIXER,AIR LOOP HVAC ZONE MIXER 5,ZONE RETAIL BACK_SPACE C  - STORY GROUND PSZ-AC
     #Inlet Nodes on Return Air Path Component,1
     Return Air Path Component Nodes,1,AIRLOOPHVAC:ZONEMIXER,AIR LOOP HVAC ZONE MIXER 5,NODE 78,NODE 70,ZONE RETAIL BACK_SPACE C  - STORY GROUND PSZ-AC
! <#Nodes on Return Air Path>,<Number of Nodes>
! <Return Air Path Node>,<Node Type>,<Node Count>,<Node Name>,<AirLoopHVAC Name>
   #Nodes on Return Air Path,2
   Return Air Path Node,Outlet Node,1,NODE 70,ZONE RETAIL BACK_SPACE C  - STORY GROUND PSZ-AC
   Return Air Path Node,Inlet Node,2,NODE 78,ZONE RETAIL BACK_SPACE C  - STORY GROUND PSZ-AC
 Return Air Path,6,ZONE RETAIL BACK_SPACE C END_B - STORY GROUND PSZ-AC RETURN PATH,ZONE RETAIL BACK_SPACE C END_B - STORY GROUND PSZ-AC
   #Components on Return Air Path,1
   Return Air Path Component,1,AIRLOOPHVAC:ZONEMIXER,AIR LOOP HVAC ZONE MIXER 14,ZONE RETAIL BACK_SPACE C END_B - STORY GROUND PSZ-AC
     #Inlet Nodes on Return Air Path Component,1
     Return Air Path Component Nodes,1,AIRLOOPHVAC:ZONEMIXER,AIR LOOP HVAC ZONE MIXER 14,NODE 186,NODE 178,ZONE RETAIL BACK_SPACE C END_B - STORY GROUND PSZ-AC
! <#Nodes on Return Air Path>,<Number of Nodes>
! <Return Air Path Node>,<Node Type>,<Node Count>,<Node Name>,<AirLoopHVAC Name>
   #Nodes on Return Air Path,2
   Return Air Path Node,Outlet Node,1,NODE 178,ZONE RETAIL BACK_SPACE C END_B - STORY GROUND PSZ-AC
   Return Air Path Node,Inlet Node,2,NODE 186,ZONE RETAIL BACK_SPACE C END_B - STORY GROUND PSZ-AC
 Return Air Path,7,ZONE RETAIL ENTRY A  - STORY GROUND PSZ-AC RETURN PATH,ZONE RETAIL ENTRY A  - STORY GROUND PSZ-AC
   #Components on Return Air Path,1
   Return Air Path Component,1,AIRLOOPHVAC:ZONEMIXER,AIR LOOP HVAC ZONE MIXER 13,ZONE RETAIL ENTRY A  - STORY GROUND PSZ-AC
     #Inlet Nodes on Return Air Path Component,1
     Return Air Path Component Nodes,1,AIRLOOPHVAC:ZONEMIXER,AIR LOOP HVAC ZONE MIXER 13,NODE 174,NODE 166,ZONE RETAIL ENTRY A  - STORY GROUND PSZ-AC
! <#Nodes on Return Air Path>,<Number of Nodes>
! <Return Air Path Node>,<Node Type>,<Node Count>,<Node Name>,<AirLoopHVAC Name>
   #Nodes on Return Air Path,2
   Return Air Path Node,Outlet Node,1,NODE 166,ZONE RETAIL ENTRY A  - STORY GROUND PSZ-AC
   Return Air Path Node,Inlet Node,2,NODE 174,ZONE RETAIL ENTRY A  - STORY GROUND PSZ-AC
 Return Air Path,8,ZONE RETAIL ENTRY B  - STORY GROUND PSZ-AC RETURN PATH,ZONE RETAIL ENTRY B  - STORY GROUND PSZ-AC
   #Components on Return Air Path,1
   Return Air Path Component,1,AIRLOOPHVAC:ZONEMIXER,AIR LOOP HVAC ZONE MIXER 2,ZONE RETAIL ENTRY B  - STORY GROUND PSZ-AC
     #Inlet Nodes on Return Air Path Component,1
     Return Air Path Component Nodes,1,AIRLOOPHVAC:ZONEMIXER,AIR LOOP HVAC ZONE MIXER 2,NODE 42,NODE 34,ZONE RETAIL ENTRY B  - STORY GROUND PSZ-AC
! <#Nodes on Return Air Path>,<Number of Nodes>
! <Return Air Path Node>,<Node Type>,<Node Count>,<Node Name>,<AirLoopHVAC Name>
   #Nodes on Return Air Path,2
   Return Air Path Node,Outlet Node,1,NODE 34,ZONE RETAIL ENTRY B  - STORY GROUND PSZ-AC
   Return Air Path Node,Inlet Node,2,NODE 42,ZONE RETAIL ENTRY B  - STORY GROUND PSZ-AC
 Return Air Path,9,ZONE RETAIL ENTRY C  - STORY GROUND PSZ-AC RETURN PATH,ZONE RETAIL ENTRY C  - STORY GROUND PSZ-AC
   #Components on Return Air Path,1
   Return Air Path Component,1,AIRLOOPHVAC:ZONEMIXER,AIR LOOP HVAC ZONE MIXER 18,ZONE RETAIL ENTRY C  - STORY GROUND PSZ-AC
     #Inlet Nodes on Return Air Path Component,1
     Return Air Path Component Nodes,1,AIRLOOPHVAC:ZONEMIXER,AIR LOOP HVAC ZONE MIXER 18,NODE 234,NODE 226,ZONE RETAIL ENTRY C  - STORY GROUND PSZ-AC
! <#Nodes on Return Air Path>,<Number of Nodes>
! <Return Air Path Node>,<Node Type>,<Node Count>,<Node Name>,<AirLoopHVAC Name>
   #Nodes on Return Air Path,2
   Return Air Path Node,Outlet Node,1,NODE 226,ZONE RETAIL ENTRY C  - STORY GROUND PSZ-AC
   Return Air Path Node,Inlet Node,2,NODE 234,ZONE RETAIL ENTRY C  - STORY GROUND PSZ-AC
 Return Air Path,10,ZONE RETAIL POINT_OF_SALE A  - STORY GROUND PSZ-AC RETURN PATH,ZONE RETAIL POINT_OF_SALE A  - STORY GROUND PSZ-AC
   #Components on Return Air Path,1
   Return Air Path Component,1,AIRLOOPHVAC:ZONEMIXER,AIR LOOP HVAC ZONE MIXER 1,ZONE RETAIL POINT_OF_SALE A  - STORY GROUND PSZ-AC
     #Inlet Nodes on Return Air Path Component,1
     Return Air Path Component Nodes,1,AIRLOOPHVAC:ZONEMIXER,AIR LOOP HVAC ZONE MIXER 1,NODE 30,NODE 22,ZONE RETAIL POINT_OF_SALE A  - STORY GROUND PSZ-AC
! <#Nodes on Return Air Path>,<Number of Nodes>
! <Return Air Path Node>,<Node Type>,<Node Count>,<Node Name>,<AirLoopHVAC Name>
   #Nodes on Return Air Path,2
   Return Air Path Node,Outlet Node,1,NODE 22,ZONE RETAIL POINT_OF_SALE A  - STORY GROUND PSZ-AC
   Return Air Path Node,Inlet Node,2,NODE 30,ZONE RETAIL POINT_OF_SALE A  - STORY GROUND PSZ-AC
 Return Air Path,11,ZONE RETAIL POINT_OF_SALE B  - STORY GROUND PSZ-AC RETURN PATH,ZONE RETAIL POINT_OF_SALE B  - STORY GROUND PSZ-AC
   #Components on Return Air Path,1
   Return Air Path Component,1,AIRLOOPHVAC:ZONEMIXER,AIR LOOP HVAC ZONE MIXER 15,ZONE RETAIL POINT_OF_SALE B  - STORY GROUND PSZ-AC
     #Inlet Nodes on Return Air Path Component,1
     Return Air Path Component Nodes,1,AIRLOOPHVAC:ZONEMIXER,AIR LOOP HVAC ZONE MIXER 15,NODE 198,NODE 190,ZONE RETAIL POINT_OF_SALE B  - STORY GROUND PSZ-AC
! <#Nodes on Return Air Path>,<Number of Nodes>
! <Return Air Path Node>,<Node Type>,<Node Count>,<Node Name>,<AirLoopHVAC Name>
   #Nodes on Return Air Path,2
   Return Air Path Node,Outlet Node,1,NODE 190,ZONE RETAIL POINT_OF_SALE B  - STORY GROUND PSZ-AC
   Return Air Path Node,Inlet Node,2,NODE 198,ZONE RETAIL POINT_OF_SALE B  - STORY GROUND PSZ-AC
 Return Air Path,12,ZONE RETAIL POINT_OF_SALE C  - STORY GROUND PSZ-AC RETURN PATH,ZONE RETAIL POINT_OF_SALE C  - STORY GROUND PSZ-AC
   #Components on Return Air Path,1
   Return Air Path Component,1,AIRLOOPHVAC:ZONEMIXER,AIR LOOP HVAC ZONE MIXER 8,ZONE RETAIL POINT_OF_SALE C  - STORY GROUND PSZ-AC
     #Inlet Nodes on Return Air Path Component,1
     Return Air Path Component Nodes,1,AIRLOOPHVAC:ZONEMIXER,AIR LOOP HVAC ZONE MIXER 8,NODE 114,NODE 106,ZONE RETAIL POINT_OF_SALE C  - STORY GROUND PSZ-AC
! <#Nodes on Return Air Path>,<Number of Nodes>
! <Return Air Path Node>,<Node Type>,<Node Count>,<Node Name>,<AirLoopHVAC Name>
   #Nodes on Return Air Path,2
   Return Air Path Node,Outlet Node,1,NODE 106,ZONE RETAIL POINT_OF_SALE C  - STORY GROUND PSZ-AC
   Return Air Path Node,Inlet Node,2,NODE 114,ZONE RETAIL POINT_OF_SALE C  - STORY GROUND PSZ-AC
 Return Air Path,13,ZONE RETAIL RETAIL A  - STORY GROUND PSZ-AC RETURN PATH,ZONE RETAIL RETAIL A  - STORY GROUND PSZ-AC
   #Components on Return Air Path,1
   Return Air Path Component,1,AIRLOOPHVAC:ZONEMIXER,AIR LOOP HVAC ZONE MIXER 11,ZONE RETAIL RETAIL A  - STORY GROUND PSZ-AC
     #Inlet Nodes on Return Air Path Component,1
     Return Air Path Component Nodes,1,AIRLOOPHVAC:ZONEMIXER,AIR LOOP HVAC ZONE MIXER 11,NODE 150,NODE 142,ZONE RETAIL RETAIL A  - STORY GROUND PSZ-AC
! <#Nodes on Return Air Path>,<Number of Nodes>
! <Return Air Path Node>,<Node Type>,<Node Count>,<Node Name>,<AirLoopHVAC Name>
   #Nodes on Return Air Path,2
   Return Air Path Node,Outlet Node,1,NODE 142,ZONE RETAIL RETAIL A  - STORY GROUND PSZ-AC
   Return Air Path Node,Inlet Node,2,NODE 150,ZONE RETAIL RETAIL A  - STORY GROUND PSZ-AC
 Return Air Path,14,ZONE RETAIL RETAIL A END_A - STORY GROUND PSZ-AC RETURN PATH,ZONE RETAIL RETAIL A END_A - STORY GROUND PSZ-AC
   #Components on Return Air Path,1
   Return Air Path Component,1,AIRLOOPHVAC:ZONEMIXER,AIR LOOP HVAC ZONE MIXER 6,ZONE RETAIL RETAIL A END_A - STORY GROUND PSZ-AC
     #Inlet Nodes on Return Air Path Component,1
     Return Air Path Component Nodes,1,AIRLOOPHVAC:ZONEMIXER,AIR LOOP HVAC ZONE MIXER 6,NODE 90,NODE 82,ZONE RETAIL RETAIL A END_A - STORY GROUND PSZ-AC
! <#Nodes on Return Air Path>,<Number of Nodes>
! <Return Air Path Node>,<Node Type>,<Node Count>,<Node Name>,<AirLoopHVAC Name>
   #Nodes on Return Air Path,2
   Return Air Path Node,Outlet Node,1,NODE 82,ZONE RETAIL RETAIL A END_A - STORY GROUND PSZ-AC
   Return Air Path Node,Inlet Node,2,NODE 90,ZONE RETAIL RETAIL A END_A - STORY GROUND PSZ-AC
 Return Air Path,15,ZONE RETAIL RETAIL B  - STORY GROUND PSZ-AC RETURN PATH,ZONE RETAIL RETAIL B  - STORY GROUND PSZ-AC
   #Components on Return Air Path,1
   Return Air Path Component,1,AIRLOOPHVAC:ZONEMIXER,AIR LOOP HVAC ZONE MIXER 9,ZONE RETAIL RETAIL B  - STORY GROUND PSZ-AC
     #Inlet Nodes on Return Air Path Component,1
     Return Air Path Component Nodes,1,AIRLOOPHVAC:ZONEMIXER,AIR LOOP HVAC ZONE MIXER 9,NODE 126,NODE 118,ZONE RETAIL RETAIL B  - STORY GROUND PSZ-AC
! <#Nodes on Return Air Path>,<Number of Nodes>
! <Return Air Path Node>,<Node Type>,<Node Count>,<Node Name>,<AirLoopHVAC Name>
   #Nodes on Return Air Path,2
   Return Air Path Node,Outlet Node,1,NODE 118,ZONE RETAIL RETAIL B  - STORY GROUND PSZ-AC
   Return Air Path Node,Inlet Node,2,NODE 126,ZONE RETAIL RETAIL B  - STORY GROUND PSZ-AC
 Return Air Path,16,ZONE RETAIL RETAIL B END_A - STORY GROUND PSZ-AC RETURN PATH,ZONE RETAIL RETAIL B END_A - STORY GROUND PSZ-AC
   #Components on Return Air Path,1
   Return Air Path Component,1,AIRLOOPHVAC:ZONEMIXER,AIR LOOP HVAC ZONE MIXER 12,ZONE RETAIL RETAIL B END_A - STORY GROUND PSZ-AC
     #Inlet Nodes on Return Air Path Component,1
     Return Air Path Component Nodes,1,AIRLOOPHVAC:ZONEMIXER,AIR LOOP HVAC ZONE MIXER 12,NODE 162,NODE 154,ZONE RETAIL RETAIL B END_A - STORY GROUND PSZ-AC
! <#Nodes on Return Air Path>,<Number of Nodes>
! <Return Air Path Node>,<Node Type>,<Node Count>,<Node Name>,<AirLoopHVAC Name>
   #Nodes on Return Air Path,2
   Return Air Path Node,Outlet Node,1,NODE 154,ZONE RETAIL RETAIL B END_A - STORY GROUND PSZ-AC
   Return Air Path Node,Inlet Node,2,NODE 162,ZONE RETAIL RETAIL B END_A - STORY GROUND PSZ-AC
 Return Air Path,17,ZONE RETAIL RETAIL C  - STORY GROUND PSZ-AC RETURN PATH,ZONE RETAIL RETAIL C  - STORY GROUND PSZ-AC
   #Components on Return Air Path,1
   Return Air Path Component,1,AIRLOOPHVAC:ZONEMIXER,AIR LOOP HVAC ZONE MIXER 16,ZONE RETAIL RETAIL C  - STORY GROUND PSZ-AC
     #Inlet Nodes on Return Air Path Component,1
     Return Air Path Component Nodes,1,AIRLOOPHVAC:ZONEMIXER,AIR LOOP HVAC ZONE MIXER 16,NODE 210,NODE 202,ZONE RETAIL RETAIL C  - STORY GROUND PSZ-AC
! <#Nodes on Return Air Path>,<Number of Nodes>
! <Return Air Path Node>,<Node Type>,<Node Count>,<Node Name>,<AirLoopHVAC Name>
   #Nodes on Return Air Path,2
   Return Air Path Node,Outlet Node,1,NODE 202,ZONE RETAIL RETAIL C  - STORY GROUND PSZ-AC
   Return Air Path Node,Inlet Node,2,NODE 210,ZONE RETAIL RETAIL C  - STORY GROUND PSZ-AC
 Return Air Path,18,ZONE RETAIL RETAIL C END_A - STORY GROUND PSZ-AC RETURN PATH,ZONE RETAIL RETAIL C END_A - STORY GROUND PSZ-AC
   #Components on Return Air Path,1
   Return Air Path Component,1,AIRLOOPHVAC:ZONEMIXER,AIR LOOP HVAC ZONE MIXER 3,ZONE RETAIL RETAIL C END_A - STORY GROUND PSZ-AC
     #Inlet Nodes on Return Air Path Component,1
     Return Air Path Component Nodes,1,AIRLOOPHVAC:ZONEMIXER,AIR LOOP HVAC ZONE MIXER 3,NODE 54,NODE 46,ZONE RETAIL RETAIL C END_A - STORY GROUND PSZ-AC
! <#Nodes on Return Air Path>,<Number of Nodes>
! <Return Air Path Node>,<Node Type>,<Node Count>,<Node Name>,<AirLoopHVAC Name>
   #Nodes on Return Air Path,2
   Return Air Path Node,Outlet Node,1,NODE 46,ZONE RETAIL RETAIL C END_A - STORY GROUND PSZ-AC
   Return Air Path Node,Inlet Node,2,NODE 54,ZONE RETAIL RETAIL C END_A - STORY GROUND PSZ-AC
! ===============================================================
! #Outdoor Air Nodes,<Number of Outdoor Air Nodes>
 #Outdoor Air Nodes,18
! <Outdoor Air Node>,<NodeNumber>,<Node Name>
 Outdoor Air Node,145,NODE 60
 Outdoor Air Node,146,NODE 96
 Outdoor Air Node,147,NODE 216
 Outdoor Air Node,148,NODE 132
 Outdoor Air Node,149,NODE 72
 Outdoor Air Node,150,NODE 180
 Outdoor Air Node,151,NODE 168
 Outdoor Air Node,152,NODE 36
 Outdoor Air Node,153,NODE 228
 Outdoor Air Node,154,NODE 24
 Outdoor Air Node,155,NODE 192
 Outdoor Air Node,156,NODE 108
 Outdoor Air Node,157,NODE 144
 Outdoor Air Node,158,NODE 84
 Outdoor Air Node,159,NODE 120
 Outdoor Air Node,160,NODE 156
 Outdoor Air Node,161,NODE 204
 Outdoor Air Node,162,NODE 48
! ===============================================================
! <#Component Sets>,<Number of Component Sets>
 #Component Sets,126
! <Component Set>,<Component Set Count>,<Parent Object Type>,<Parent Object Name>,<Component Type>,<Component Name>,<Inlet Node ID>,<Outlet Node ID>,<Description>
 Component Set,1,BRANCH,ZONE RETAIL BACK_SPACE A  - STORY GROUND PSZ-AC MAIN BRANCH,AIRLOOPHVAC:OUTDOORAIRSYSTEM,ZONE RETAIL BACK_SPACE A  - STORY GROUND PSZ-AC OA SYS,NODE 55,NODE 65,Air Nodes
 Component Set,2,BRANCH,ZONE RETAIL BACK_SPACE A  - STORY GROUND PSZ-AC MAIN BRANCH,COILSYSTEM:COOLING:DX,ZONE RETAIL BACK_SPACE A  - STORY GROUND PSZ-AC 1SPD DX AC CLG COIL COILSYSTEM,NODE 65,NODE 64,Air Nodes
 Component Set,3,BRANCH,ZONE RETAIL BACK_SPACE A  - STORY GROUND PSZ-AC MAIN BRANCH,COIL:HEATING:FUEL,ZONE RETAIL BACK_SPACE A  - STORY GROUND PSZ-AC GAS HTG COIL,NODE 64,NODE 63,Air Nodes
 Component Set,4,BRANCH,ZONE RETAIL BACK_SPACE A  - STORY GROUND PSZ-AC MAIN BRANCH,COIL:HEATING:ELECTRIC,ZONE RETAIL BACK_SPACE A  - STORY GROUND PSZ-AC ELECTRIC BACKUP HTG COIL,NODE 63,NODE 62,Air Nodes
 Component Set,5,BRANCH,ZONE RETAIL BACK_SPACE A  - STORY GROUND PSZ-AC MAIN BRANCH,FAN:CONSTANTVOLUME,ZONE RETAIL BACK_SPACE A  - STORY GROUND PSZ-AC FAN,NODE 62,NODE 56,Air Nodes
 Component Set,6,BRANCH,ZONE RETAIL BACK_SPACE A END_B - STORY GROUND PSZ-AC MAIN BRANCH,AIRLOOPHVAC:OUTDOORAIRSYSTEM,ZONE RETAIL BACK_SPACE A END_B - STORY GROUND PSZ-AC OA SYS,NODE 91,NODE 101,Air Nodes
 Component Set,7,BRANCH,ZONE RETAIL BACK_SPACE A END_B - STORY GROUND PSZ-AC MAIN BRANCH,COILSYSTEM:COOLING:DX,ZONE RETAIL BACK_SPACE A END_B - STORY GROUND PSZ-AC 1SPD DX AC CLG COIL COILSYSTEM,NODE 101,NODE 100,Air Nodes
 Component Set,8,BRANCH,ZONE RETAIL BACK_SPACE A END_B - STORY GROUND PSZ-AC MAIN BRANCH,COIL:HEATING:FUEL,ZONE RETAIL BACK_SPACE A END_B - STORY GROUND PSZ-AC GAS HTG COIL,NODE 100,NODE 99,Air Nodes
 Component Set,9,BRANCH,ZONE RETAIL BACK_SPACE A END_B - STORY GROUND PSZ-AC MAIN BRANCH,COIL:HEATING:ELECTRIC,ZONE RETAIL BACK_SPACE A END_B - STORY GROUND PSZ-AC ELECTRIC BACKUP HTG COIL,NODE 99,NODE 98,Air Nodes
 Component Set,10,BRANCH,ZONE RETAIL BACK_SPACE A END_B - STORY GROUND PSZ-AC MAIN BRANCH,FAN:CONSTANTVOLUME,ZONE RETAIL BACK_SPACE A END_B - STORY GROUND PSZ-AC FAN,NODE 98,NODE 92,Air Nodes
 Component Set,11,BRANCH,ZONE RETAIL BACK_SPACE B  - STORY GROUND PSZ-AC MAIN BRANCH,AIRLOOPHVAC:OUTDOORAIRSYSTEM,ZONE RETAIL BACK_SPACE B  - STORY GROUND PSZ-AC OA SYS,NODE 211,NODE 221,Air Nodes
 Component Set,12,BRANCH,ZONE RETAIL BACK_SPACE B  - STORY GROUND PSZ-AC MAIN BRANCH,COILSYSTEM:COOLING:DX,ZONE RETAIL BACK_SPACE B  - STORY GROUND PSZ-AC 1SPD DX AC CLG COIL COILSYSTEM,NODE 221,NODE 220,Air Nodes
 Component Set,13,BRANCH,ZONE RETAIL BACK_SPACE B  - STORY GROUND PSZ-AC MAIN BRANCH,COIL:HEATING:FUEL,ZONE RETAIL BACK_SPACE B  - STORY GROUND PSZ-AC GAS HTG COIL,NODE 220,NODE 219,Air Nodes
 Component Set,14,BRANCH,ZONE RETAIL BACK_SPACE B  - STORY GROUND PSZ-AC MAIN BRANCH,COIL:HEATING:ELECTRIC,ZONE RETAIL BACK_SPACE B  - STORY GROUND PSZ-AC ELECTRIC BACKUP HTG COIL,NODE 219,NODE 218,Air Nodes
 Component Set,15,BRANCH,ZONE RETAIL BACK_SPACE B  - STORY GROUND PSZ-AC MAIN BRANCH,FAN:CONSTANTVOLUME,ZONE RETAIL BACK_SPACE B  - STORY GROUND PSZ-AC FAN,NODE 218,NODE 212,Air Nodes
 Component Set,16,BRANCH,ZONE RETAIL BACK_SPACE B END_B - STORY GROUND PSZ-AC MAIN BRANCH,AIRLOOPHVAC:OUTDOORAIRSYSTEM,ZONE RETAIL BACK_SPACE B END_B - STORY GROUND PSZ-AC OA SYS,NODE 127,NODE 137,Air Nodes
 Component Set,17,BRANCH,ZONE RETAIL BACK_SPACE B END_B - STORY GROUND PSZ-AC MAIN BRANCH,COILSYSTEM:COOLING:DX,ZONE RETAIL BACK_SPACE B END_B - STORY GROUND PSZ-AC 1SPD DX AC CLG COIL COILSYSTEM,NODE 137,NODE 136,Air Nodes
 Component Set,18,BRANCH,ZONE RETAIL BACK_SPACE B END_B - STORY GROUND PSZ-AC MAIN BRANCH,COIL:HEATING:FUEL,ZONE RETAIL BACK_SPACE B END_B - STORY GROUND PSZ-AC GAS HTG COIL,NODE 136,NODE 135,Air Nodes
 Component Set,19,BRANCH,ZONE RETAIL BACK_SPACE B END_B - STORY GROUND PSZ-AC MAIN BRANCH,COIL:HEATING:ELECTRIC,ZONE RETAIL BACK_SPACE B END_B - STORY GROUND PSZ-AC ELECTRIC BACKUP HTG COIL,NODE 135,NODE 134,Air Nodes
 Component Set,20,BRANCH,ZONE RETAIL BACK_SPACE B END_B - STORY GROUND PSZ-AC MAIN BRANCH,FAN:CONSTANTVOLUME,ZONE RETAIL BACK_SPACE B END_B - STORY GROUND PSZ-AC FAN,NODE 134,NODE 128,Air Nodes
 Component Set,21,BRANCH,ZONE RETAIL BACK_SPACE C  - STORY GROUND PSZ-AC MAIN BRANCH,AIRLOOPHVAC:OUTDOORAIRSYSTEM,ZONE RETAIL BACK_SPACE C  - STORY GROUND PSZ-AC OA SYS,NODE 67,NODE 77,Air Nodes
 Component Set,22,BRANCH,ZONE RETAIL BACK_SPACE C  - STORY GROUND PSZ-AC MAIN BRANCH,COILSYSTEM:COOLING:DX,ZONE RETAIL BACK_SPACE C  - STORY GROUND PSZ-AC 1SPD DX AC CLG COIL COILSYSTEM,NODE 77,NODE 76,Air Nodes
 Component Set,23,BRANCH,ZONE RETAIL BACK_SPACE C  - STORY GROUND PSZ-AC MAIN BRANCH,COIL:HEATING:FUEL,ZONE RETAIL BACK_SPACE C  - STORY GROUND PSZ-AC GAS HTG COIL,NODE 76,NODE 75,Air Nodes
 Component Set,24,BRANCH,ZONE RETAIL BACK_SPACE C  - STORY GROUND PSZ-AC MAIN BRANCH,COIL:HEATING:ELECTRIC,ZONE RETAIL BACK_SPACE C  - STORY GROUND PSZ-AC ELECTRIC BACKUP HTG COIL,NODE 75,NODE 74,Air Nodes
 Component Set,25,BRANCH,ZONE RETAIL BACK_SPACE C  - STORY GROUND PSZ-AC MAIN BRANCH,FAN:CONSTANTVOLUME,ZONE RETAIL BACK_SPACE C  - STORY GROUND PSZ-AC FAN,NODE 74,NODE 68,Air Nodes
 Component Set,26,BRANCH,ZONE RETAIL BACK_SPACE C END_B - STORY GROUND PSZ-AC MAIN BRANCH,AIRLOOPHVAC:OUTDOORAIRSYSTEM,ZONE RETAIL BACK_SPACE C END_B - STORY GROUND PSZ-AC OA SYS,NODE 175,NODE 185,Air Nodes
 Component Set,27,BRANCH,ZONE RETAIL BACK_SPACE C END_B - STORY GROUND PSZ-AC MAIN BRANCH,COILSYSTEM:COOLING:DX,ZONE RETAIL BACK_SPACE C END_B - STORY GROUND PSZ-AC 1SPD DX AC CLG COIL COILSYSTEM,NODE 185,NODE 184,Air Nodes
 Component Set,28,BRANCH,ZONE RETAIL BACK_SPACE C END_B - STORY GROUND PSZ-AC MAIN BRANCH,COIL:HEATING:FUEL,ZONE RETAIL BACK_SPACE C END_B - STORY GROUND PSZ-AC GAS HTG COIL,NODE 184,NODE 183,Air Nodes
 Component Set,29,BRANCH,ZONE RETAIL BACK_SPACE C END_B - STORY GROUND PSZ-AC MAIN BRANCH,COIL:HEATING:ELECTRIC,ZONE RETAIL BACK_SPACE C END_B - STORY GROUND PSZ-AC ELECTRIC BACKUP HTG COIL,NODE 183,NODE 182,Air Nodes
 Component Set,30,BRANCH,ZONE RETAIL BACK_SPACE C END_B - STORY GROUND PSZ-AC MAIN BRANCH,FAN:CONSTANTVOLUME,ZONE RETAIL BACK_SPACE C END_B - STORY GROUND PSZ-AC FAN,NODE 182,NODE 176,Air Nodes
 Component Set,31,BRANCH,ZONE RETAIL ENTRY A  - STORY GROUND PSZ-AC MAIN BRANCH,AIRLOOPHVAC:OUTDOORAIRSYSTEM,ZONE RETAIL ENTRY A  - STORY GROUND PSZ-AC OA SYS,NODE 163,NODE 173,Air Nodes
 Component Set,32,BRANCH,ZONE RETAIL ENTRY A  - STORY GROUND PSZ-AC MAIN BRANCH,COILSYSTEM:COOLING:DX,ZONE RETAIL ENTRY A  - STORY GROUND PSZ-AC 1SPD DX AC CLG COIL COILSYSTEM,NODE 173,NODE 172,Air Nodes
 Component Set,33,BRANCH,ZONE RETAIL ENTRY A  - STORY GROUND PSZ-AC MAIN BRANCH,COIL:HEATING:FUEL,ZONE RETAIL ENTRY A  - STORY GROUND PSZ-AC GAS HTG COIL,NODE 172,NODE 171,Air Nodes
 Component Set,34,BRANCH,ZONE RETAIL ENTRY A  - STORY GROUND PSZ-AC MAIN BRANCH,COIL:HEATING:ELECTRIC,ZONE RETAIL ENTRY A  - STORY GROUND PSZ-AC ELECTRIC BACKUP HTG COIL,NODE 171,NODE 170,Air Nodes
 Component Set,35,BRANCH,ZONE RETAIL ENTRY A  - STORY GROUND PSZ-AC MAIN BRANCH,FAN:CONSTANTVOLUME,ZONE RETAIL ENTRY A  - STORY GROUND PSZ-AC FAN,NODE 170,NODE 164,Air Nodes
 Component Set,36,BRANCH,ZONE RETAIL ENTRY B  - STORY GROUND PSZ-AC MAIN BRANCH,AIRLOOPHVAC:OUTDOORAIRSYSTEM,ZONE RETAIL ENTRY B  - STORY GROUND PSZ-AC OA SYS,NODE 31,NODE 41,Air Nodes
 Component Set,37,BRANCH,ZONE RETAIL ENTRY B  - STORY GROUND PSZ-AC MAIN BRANCH,COILSYSTEM:COOLING:DX,ZONE RETAIL ENTRY B  - STORY GROUND PSZ-AC 1SPD DX AC CLG COIL COILSYSTEM,NODE 41,NODE 40,Air Nodes
 Component Set,38,BRANCH,ZONE RETAIL ENTRY B  - STORY GROUND PSZ-AC MAIN BRANCH,COIL:HEATING:FUEL,ZONE RETAIL ENTRY B  - STORY GROUND PSZ-AC GAS HTG COIL,NODE 40,NODE 39,Air Nodes
 Component Set,39,BRANCH,ZONE RETAIL ENTRY B  - STORY GROUND PSZ-AC MAIN BRANCH,COIL:HEATING:ELECTRIC,ZONE RETAIL ENTRY B  - STORY GROUND PSZ-AC ELECTRIC BACKUP HTG COIL,NODE 39,NODE 38,Air Nodes
 Component Set,40,BRANCH,ZONE RETAIL ENTRY B  - STORY GROUND PSZ-AC MAIN BRANCH,FAN:CONSTANTVOLUME,ZONE RETAIL ENTRY B  - STORY GROUND PSZ-AC FAN,NODE 38,NODE 32,Air Nodes
 Component Set,41,BRANCH,ZONE RETAIL ENTRY C  - STORY GROUND PSZ-AC MAIN BRANCH,AIRLOOPHVAC:OUTDOORAIRSYSTEM,ZONE RETAIL ENTRY C  - STORY GROUND PSZ-AC OA SYS,NODE 223,NODE 233,Air Nodes
 Component Set,42,BRANCH,ZONE RETAIL ENTRY C  - STORY GROUND PSZ-AC MAIN BRANCH,COILSYSTEM:COOLING:DX,ZONE RETAIL ENTRY C  - STORY GROUND PSZ-AC 1SPD DX AC CLG COIL COILSYSTEM,NODE 233,NODE 232,Air Nodes
 Component Set,43,BRANCH,ZONE RETAIL ENTRY C  - STORY GROUND PSZ-AC MAIN BRANCH,COIL:HEATING:FUEL,ZONE RETAIL ENTRY C  - STORY GROUND PSZ-AC GAS HTG COIL,NODE 232,NODE 231,Air Nodes
 Component Set,44,BRANCH,ZONE RETAIL ENTRY C  - STORY GROUND PSZ-AC MAIN BRANCH,COIL:HEATING:ELECTRIC,ZONE RETAIL ENTRY C  - STORY GROUND PSZ-AC ELECTRIC BACKUP HTG COIL,NODE 231,NODE 230,Air Nodes
 Component Set,45,BRANCH,ZONE RETAIL ENTRY C  - STORY GROUND PSZ-AC MAIN BRANCH,FAN:CONSTANTVOLUME,ZONE RETAIL ENTRY C  - STORY GROUND PSZ-AC FAN,NODE 230,NODE 224,Air Nodes
 Component Set,46,BRANCH,ZONE RETAIL POINT_OF_SALE A  - STORY GROUND PSZ-AC MAIN BRANCH,AIRLOOPHVAC:OUTDOORAIRSYSTEM,ZONE RETAIL POINT_OF_SALE A  - STORY GROUND PSZ-AC OA SYS,NODE 19,NODE 29,Air Nodes
 Component Set,47,BRANCH,ZONE RETAIL POINT_OF_SALE A  - STORY GROUND PSZ-AC MAIN BRANCH,COILSYSTEM:COOLING:DX,ZONE RETAIL POINT_OF_SALE A  - STORY GROUND PSZ-AC 1SPD DX AC CLG COIL COILSYSTEM,NODE 29,NODE 28,Air Nodes
 Component Set,48,BRANCH,ZONE RETAIL POINT_OF_SALE A  - STORY GROUND PSZ-AC MAIN BRANCH,COIL:HEATING:FUEL,ZONE RETAIL POINT_OF_SALE A  - STORY GROUND PSZ-AC GAS HTG COIL,NODE 28,NODE 27,Air Nodes
 Component Set,49,BRANCH,ZONE RETAIL POINT_OF_SALE A  - STORY GROUND PSZ-AC MAIN BRANCH,COIL:HEATING:ELECTRIC,ZONE RETAIL POINT_OF_SALE A  - STORY GROUND PSZ-AC ELECTRIC BACKUP HTG COIL,NODE 27,NODE 26,Air Nodes
 Component Set,50,BRANCH,ZONE RETAIL POINT_OF_SALE A  - STORY GROUND PSZ-AC MAIN BRANCH,FAN:CONSTANTVOLUME,ZONE RETAIL POINT_OF_SALE A  - STORY GROUND PSZ-AC FAN,NODE 26,NODE 20,Air Nodes
 Component Set,51,BRANCH,ZONE RETAIL POINT_OF_SALE B  - STORY GROUND PSZ-AC MAIN BRANCH,AIRLOOPHVAC:OUTDOORAIRSYSTEM,ZONE RETAIL POINT_OF_SALE B  - STORY GROUND PSZ-AC OA SYS,NODE 187,NODE 197,Air Nodes
 Component Set,52,BRANCH,ZONE RETAIL POINT_OF_SALE B  - STORY GROUND PSZ-AC MAIN BRANCH,COILSYSTEM:COOLING:DX,ZONE RETAIL POINT_OF_SALE B  - STORY GROUND PSZ-AC 1SPD DX AC CLG COIL COILSYSTEM,NODE 197,NODE 196,Air Nodes
 Component Set,53,BRANCH,ZONE RETAIL POINT_OF_SALE B  - STORY GROUND PSZ-AC MAIN BRANCH,COIL:HEATING:FUEL,ZONE RETAIL POINT_OF_SALE B  - STORY GROUND PSZ-AC GAS HTG COIL,NODE 196,NODE 195,Air Nodes
 Component Set,54,BRANCH,ZONE RETAIL POINT_OF_SALE B  - STORY GROUND PSZ-AC MAIN BRANCH,COIL:HEATING:ELECTRIC,ZONE RETAIL POINT_OF_SALE B  - STORY GROUND PSZ-AC ELECTRIC BACKUP HTG COIL,NODE 195,NODE 194,Air Nodes
 Component Set,55,BRANCH,ZONE RETAIL POINT_OF_SALE B  - STORY GROUND PSZ-AC MAIN BRANCH,FAN:CONSTANTVOLUME,ZONE RETAIL POINT_OF_SALE B  - STORY GROUND PSZ-AC FAN,NODE 194,NODE 188,Air Nodes
 Component Set,56,BRANCH,ZONE RETAIL POINT_OF_SALE C  - STORY GROUND PSZ-AC MAIN BRANCH,AIRLOOPHVAC:OUTDOORAIRSYSTEM,ZONE RETAIL POINT_OF_SALE C  - STORY GROUND PSZ-AC OA SYS,NODE 103,NODE 113,Air Nodes
 Component Set,57,BRANCH,ZONE RETAIL POINT_OF_SALE C  - STORY GROUND PSZ-AC MAIN BRANCH,COILSYSTEM:COOLING:DX,ZONE RETAIL POINT_OF_SALE C  - STORY GROUND PSZ-AC 1SPD DX AC CLG COIL COILSYSTEM,NODE 113,NODE 112,Air Nodes
 Component Set,58,BRANCH,ZONE RETAIL POINT_OF_SALE C  - STORY GROUND PSZ-AC MAIN BRANCH,COIL:HEATING:FUEL,ZONE RETAIL POINT_OF_SALE C  - STORY GROUND PSZ-AC GAS HTG COIL,NODE 112,NODE 111,Air Nodes
 Component Set,59,BRANCH,ZONE RETAIL POINT_OF_SALE C  - STORY GROUND PSZ-AC MAIN BRANCH,COIL:HEATING:ELECTRIC,ZONE RETAIL POINT_OF_SALE C  - STORY GROUND PSZ-AC ELECTRIC BACKUP HTG COIL,NODE 111,NODE 110,Air Nodes
 Component Set,60,BRANCH,ZONE RETAIL POINT_OF_SALE C  - STORY GROUND PSZ-AC MAIN BRANCH,FAN:CONSTANTVOLUME,ZONE RETAIL POINT_OF_SALE C  - STORY GROUND PSZ-AC FAN,NODE 110,NODE 104,Air Nodes
 Component Set,61,BRANCH,ZONE RETAIL RETAIL A  - STORY GROUND PSZ-AC MAIN BRANCH,AIRLOOPHVAC:OUTDOORAIRSYSTEM,ZONE RETAIL RETAIL A  - STORY GROUND PSZ-AC OA SYS,NODE 139,NODE 149,Air Nodes
 Component Set,62,BRANCH,ZONE RETAIL RETAIL A  - STORY GROUND PSZ-AC MAIN BRANCH,COILSYSTEM:COOLING:DX,ZONE RETAIL RETAIL A  - STORY GROUND PSZ-AC 1SPD DX AC CLG COIL COILSYSTEM,NODE 149,NODE 148,Air Nodes
 Component Set,63,BRANCH,ZONE RETAIL RETAIL A  - STORY GROUND PSZ-AC MAIN BRANCH,COIL:HEATING:FUEL,ZONE RETAIL RETAIL A  - STORY GROUND PSZ-AC GAS HTG COIL,NODE 148,NODE 147,Air Nodes
 Component Set,64,BRANCH,ZONE RETAIL RETAIL A  - STORY GROUND PSZ-AC MAIN BRANCH,COIL:HEATING:ELECTRIC,ZONE RETAIL RETAIL A  - STORY GROUND PSZ-AC ELECTRIC BACKUP HTG COIL,NODE 147,NODE 146,Air Nodes
 Component Set,65,BRANCH,ZONE RETAIL RETAIL A  - STORY GROUND PSZ-AC MAIN BRANCH,FAN:CONSTANTVOLUME,ZONE RETAIL RETAIL A  - STORY GROUND PSZ-AC FAN,NODE 146,NODE 140,Air Nodes
 Component Set,66,BRANCH,ZONE RETAIL RETAIL A END_A - STORY GROUND PSZ-AC MAIN BRANCH,AIRLOOPHVAC:OUTDOORAIRSYSTEM,ZONE RETAIL RETAIL A END_A - STORY GROUND PSZ-AC OA SYS,NODE 79,NODE 89,Air Nodes
 Component Set,67,BRANCH,ZONE RETAIL RETAIL A END_A - STORY GROUND PSZ-AC MAIN BRANCH,COILSYSTEM:COOLING:DX,ZONE RETAIL RETAIL A END_A - STORY GROUND PSZ-AC 1SPD DX AC CLG COIL COILSYSTEM,NODE 89,NODE 88,Air Nodes
 Component Set,68,BRANCH,ZONE RETAIL RETAIL A END_A - STORY GROUND PSZ-AC MAIN BRANCH,COIL:HEATING:FUEL,ZONE RETAIL RETAIL A END_A - STORY GROUND PSZ-AC GAS HTG COIL,NODE 88,NODE 87,Air Nodes
 Component Set,69,BRANCH,ZONE RETAIL RETAIL A END_A - STORY GROUND PSZ-AC MAIN BRANCH,COIL:HEATING:ELECTRIC,ZONE RETAIL RETAIL A END_A - STORY GROUND PSZ-AC ELECTRIC BACKUP HTG COIL,NODE 87,NODE 86,Air Nodes
 Component Set,70,BRANCH,ZONE RETAIL RETAIL A END_A - STORY GROUND PSZ-AC MAIN BRANCH,FAN:CONSTANTVOLUME,ZONE RETAIL RETAIL A END_A - STORY GROUND PSZ-AC FAN,NODE 86,NODE 80,Air Nodes
 Component Set,71,BRANCH,ZONE RETAIL RETAIL B  - STORY GROUND PSZ-AC MAIN BRANCH,AIRLOOPHVAC:OUTDOORAIRSYSTEM,ZONE RETAIL RETAIL B  - STORY GROUND PSZ-AC OA SYS,NODE 115,NODE 125,Air Nodes
 Component Set,72,BRANCH,ZONE RETAIL RETAIL B  - STORY GROUND PSZ-AC MAIN BRANCH,COILSYSTEM:COOLING:DX,ZONE RETAIL RETAIL B  - STORY GROUND PSZ-AC 1SPD DX AC CLG COIL COILSYSTEM,NODE 125,NODE 124,Air Nodes
 Component Set,73,BRANCH,ZONE RETAIL RETAIL B  - STORY GROUND PSZ-AC MAIN BRANCH,COIL:HEATING:FUEL,ZONE RETAIL RETAIL B  - STORY GROUND PSZ-AC GAS HTG COIL,NODE 124,NODE 123,Air Nodes
 Component Set,74,BRANCH,ZONE RETAIL RETAIL B  - STORY GROUND PSZ-AC MAIN BRANCH,COIL:HEATING:ELECTRIC,ZONE RETAIL RETAIL B  - STORY GROUND PSZ-AC ELECTRIC BACKUP HTG COIL,NODE 123,NODE 122,Air Nodes
 Component Set,75,BRANCH,ZONE RETAIL RETAIL B  - STORY GROUND PSZ-AC MAIN BRANCH,FAN:CONSTANTVOLUME,ZONE RETAIL RETAIL B  - STORY GROUND PSZ-AC FAN,NODE 122,NODE 116,Air Nodes
 Component Set,76,BRANCH,ZONE RETAIL RETAIL B END_A - STORY GROUND PSZ-AC MAIN BRANCH,AIRLOOPHVAC:OUTDOORAIRSYSTEM,ZONE RETAIL RETAIL B END_A - STORY GROUND PSZ-AC OA SYS,NODE 151,NODE 161,Air Nodes
 Component Set,77,BRANCH,ZONE RETAIL RETAIL B END_A - STORY GROUND PSZ-AC MAIN BRANCH,COILSYSTEM:COOLING:DX,ZONE RETAIL RETAIL B END_A - STORY GROUND PSZ-AC 1SPD DX AC CLG COIL COILSYSTEM,NODE 161,NODE 160,Air Nodes
 Component Set,78,BRANCH,ZONE RETAIL RETAIL B END_A - STORY GROUND PSZ-AC MAIN BRANCH,COIL:HEATING:FUEL,ZONE RETAIL RETAIL B END_A - STORY GROUND PSZ-AC GAS HTG COIL,NODE 160,NODE 159,Air Nodes
 Component Set,79,BRANCH,ZONE RETAIL RETAIL B END_A - STORY GROUND PSZ-AC MAIN BRANCH,COIL:HEATING:ELECTRIC,ZONE RETAIL RETAIL B END_A - STORY GROUND PSZ-AC ELECTRIC BACKUP HTG COIL,NODE 159,NODE 158,Air Nodes
 Component Set,80,BRANCH,ZONE RETAIL RETAIL B END_A - STORY GROUND PSZ-AC MAIN BRANCH,FAN:CONSTANTVOLUME,ZONE RETAIL RETAIL B END_A - STORY GROUND PSZ-AC FAN,NODE 158,NODE 152,Air Nodes
 Component Set,81,BRANCH,ZONE RETAIL RETAIL C  - STORY GROUND PSZ-AC MAIN BRANCH,AIRLOOPHVAC:OUTDOORAIRSYSTEM,ZONE RETAIL RETAIL C  - STORY GROUND PSZ-AC OA SYS,NODE 199,NODE 209,Air Nodes
 Component Set,82,BRANCH,ZONE RETAIL RETAIL C  - STORY GROUND PSZ-AC MAIN BRANCH,COILSYSTEM:COOLING:DX,ZONE RETAIL RETAIL C  - STORY GROUND PSZ-AC 1SPD DX AC CLG COIL COILSYSTEM,NODE 209,NODE 208,Air Nodes
 Component Set,83,BRANCH,ZONE RETAIL RETAIL C  - STORY GROUND PSZ-AC MAIN BRANCH,COIL:HEATING:FUEL,ZONE RETAIL RETAIL C  - STORY GROUND PSZ-AC GAS HTG COIL,NODE 208,NODE 207,Air Nodes
 Component Set,84,BRANCH,ZONE RETAIL RETAIL C  - STORY GROUND PSZ-AC MAIN BRANCH,COIL:HEATING:ELECTRIC,ZONE RETAIL RETAIL C  - STORY GROUND PSZ-AC ELECTRIC BACKUP HTG COIL,NODE 207,NODE 206,Air Nodes
 Component Set,85,BRANCH,ZONE RETAIL RETAIL C  - STORY GROUND PSZ-AC MAIN BRANCH,FAN:CONSTANTVOLUME,ZONE RETAIL RETAIL C  - STORY GROUND PSZ-AC FAN,NODE 206,NODE 200,Air Nodes
 Component Set,86,BRANCH,ZONE RETAIL RETAIL C END_A - STORY GROUND PSZ-AC MAIN BRANCH,AIRLOOPHVAC:OUTDOORAIRSYSTEM,ZONE RETAIL RETAIL C END_A - STORY GROUND PSZ-AC OA SYS,NODE 43,NODE 53,Air Nodes
 Component Set,87,BRANCH,ZONE RETAIL RETAIL C END_A - STORY GROUND PSZ-AC MAIN BRANCH,COILSYSTEM:COOLING:DX,ZONE RETAIL RETAIL C END_A - STORY GROUND PSZ-AC 1SPD DX AC CLG COIL COILSYSTEM,NODE 53,NODE 52,Air Nodes
 Component Set,88,BRANCH,ZONE RETAIL RETAIL C END_A - STORY GROUND PSZ-AC MAIN BRANCH,COIL:HEATING:FUEL,ZONE RETAIL RETAIL C END_A - STORY GROUND PSZ-AC GAS HTG COIL,NODE 52,NODE 51,Air Nodes
 Component Set,89,BRANCH,ZONE RETAIL RETAIL C END_A - STORY GROUND PSZ-AC MAIN BRANCH,COIL:HEATING:ELECTRIC,ZONE RETAIL RETAIL C END_A - STORY GROUND PSZ-AC ELECTRIC BACKUP HTG COIL,NODE 51,NODE 50,Air Nodes
 Component Set,90,BRANCH,ZONE RETAIL RETAIL C END_A - STORY GROUND PSZ-AC MAIN BRANCH,FAN:CONSTANTVOLUME,ZONE RETAIL RETAIL C END_A - STORY GROUND PSZ-AC FAN,NODE 50,NODE 44,Air Nodes
 Component Set,91,AIRLOOPHVAC:OUTDOORAIRSYSTEM,ZONE RETAIL BACK_SPACE A  - STORY GROUND PSZ-AC OA SYS,OUTDOORAIR:MIXER,ZONE RETAIL BACK_SPACE A  - STORY GROUND PSZ-AC OA SYS OUTDOOR AIR MIXER,NODE 60,NODE 65,Air Nodes
 Component Set,92,AIRLOOPHVAC:OUTDOORAIRSYSTEM,ZONE RETAIL BACK_SPACE A END_B - STORY GROUND PSZ-AC OA SYS,OUTDOORAIR:MIXER,ZONE RETAIL BACK_SPACE A END_B - STORY GROUND PSZ-AC OA SYS OUTDOOR AIR MIXER,NODE 96,NODE 101,Air Nodes
 Component Set,93,AIRLOOPHVAC:OUTDOORAIRSYSTEM,ZONE RETAIL BACK_SPACE B  - STORY GROUND PSZ-AC OA SYS,OUTDOORAIR:MIXER,ZONE RETAIL BACK_SPACE B  - STORY GROUND PSZ-AC OA SYS OUTDOOR AIR MIXER,NODE 216,NODE 221,Air Nodes
 Component Set,94,AIRLOOPHVAC:OUTDOORAIRSYSTEM,ZONE RETAIL BACK_SPACE B END_B - STORY GROUND PSZ-AC OA SYS,OUTDOORAIR:MIXER,ZONE RETAIL BACK_SPACE B END_B - STORY GROUND PSZ-AC OA SYS OUTDOOR AIR MIXER,NODE 132,NODE 137,Air Nodes
 Component Set,95,AIRLOOPHVAC:OUTDOORAIRSYSTEM,ZONE RETAIL BACK_SPACE C  - STORY GROUND PSZ-AC OA SYS,OUTDOORAIR:MIXER,ZONE RETAIL BACK_SPACE C  - STORY GROUND PSZ-AC OA SYS OUTDOOR AIR MIXER,NODE 72,NODE 77,Air Nodes
 Component Set,96,AIRLOOPHVAC:OUTDOORAIRSYSTEM,ZONE RETAIL BACK_SPACE C END_B - STORY GROUND PSZ-AC OA SYS,OUTDOORAIR:MIXER,ZONE RETAIL BACK_SPACE C END_B - STORY GROUND PSZ-AC OA SYS OUTDOOR AIR MIXER,NODE 180,NODE 185,Air Nodes
 Component Set,97,AIRLOOPHVAC:OUTDOORAIRSYSTEM,ZONE RETAIL ENTRY A  - STORY GROUND PSZ-AC OA SYS,OUTDOORAIR:MIXER,ZONE RETAIL ENTRY A  - STORY GROUND PSZ-AC OA SYS OUTDOOR AIR MIXER,NODE 168,NODE 173,Air Nodes
 Component Set,98,AIRLOOPHVAC:OUTDOORAIRSYSTEM,ZONE RETAIL ENTRY B  - STORY GROUND PSZ-AC OA SYS,OUTDOORAIR:MIXER,ZONE RETAIL ENTRY B  - STORY GROUND PSZ-AC OA SYS OUTDOOR AIR MIXER,NODE 36,NODE 41,Air Nodes
 Component Set,99,AIRLOOPHVAC:OUTDOORAIRSYSTEM,ZONE RETAIL ENTRY C  - STORY GROUND PSZ-AC OA SYS,OUTDOORAIR:MIXER,ZONE RETAIL ENTRY C  - STORY GROUND PSZ-AC OA SYS OUTDOOR AIR MIXER,NODE 228,NODE 233,Air Nodes
 Component Set,100,AIRLOOPHVAC:OUTDOORAIRSYSTEM,ZONE RETAIL POINT_OF_SALE A  - STORY GROUND PSZ-AC OA SYS,OUTDOORAIR:MIXER,ZONE RETAIL POINT_OF_SALE A  - STORY GROUND PSZ-AC OA SYS OUTDOOR AIR MIXER,NODE 24,NODE 29,Air Nodes
 Component Set,101,AIRLOOPHVAC:OUTDOORAIRSYSTEM,ZONE RETAIL POINT_OF_SALE B  - STORY GROUND PSZ-AC OA SYS,OUTDOORAIR:MIXER,ZONE RETAIL POINT_OF_SALE B  - STORY GROUND PSZ-AC OA SYS OUTDOOR AIR MIXER,NODE 192,NODE 197,Air Nodes
 Component Set,102,AIRLOOPHVAC:OUTDOORAIRSYSTEM,ZONE RETAIL POINT_OF_SALE C  - STORY GROUND PSZ-AC OA SYS,OUTDOORAIR:MIXER,ZONE RETAIL POINT_OF_SALE C  - STORY GROUND PSZ-AC OA SYS OUTDOOR AIR MIXER,NODE 108,NODE 113,Air Nodes
 Component Set,103,AIRLOOPHVAC:OUTDOORAIRSYSTEM,ZONE RETAIL RETAIL A  - STORY GROUND PSZ-AC OA SYS,OUTDOORAIR:MIXER,ZONE RETAIL RETAIL A  - STORY GROUND PSZ-AC OA SYS OUTDOOR AIR MIXER,NODE 144,NODE 149,Air Nodes
 Component Set,104,AIRLOOPHVAC:OUTDOORAIRSYSTEM,ZONE RETAIL RETAIL A END_A - STORY GROUND PSZ-AC OA SYS,OUTDOORAIR:MIXER,ZONE RETAIL RETAIL A END_A - STORY GROUND PSZ-AC OA SYS OUTDOOR AIR MIXER,NODE 84,NODE 89,Air Nodes
 Component Set,105,AIRLOOPHVAC:OUTDOORAIRSYSTEM,ZONE RETAIL RETAIL B  - STORY GROUND PSZ-AC OA SYS,OUTDOORAIR:MIXER,ZONE RETAIL RETAIL B  - STORY GROUND PSZ-AC OA SYS OUTDOOR AIR MIXER,NODE 120,NODE 125,Air Nodes
 Component Set,106,AIRLOOPHVAC:OUTDOORAIRSYSTEM,ZONE RETAIL RETAIL B END_A - STORY GROUND PSZ-AC OA SYS,OUTDOORAIR:MIXER,ZONE RETAIL RETAIL B END_A - STORY GROUND PSZ-AC OA SYS OUTDOOR AIR MIXER,NODE 156,NODE 161,Air Nodes
 Component Set,107,AIRLOOPHVAC:OUTDOORAIRSYSTEM,ZONE RETAIL RETAIL C  - STORY GROUND PSZ-AC OA SYS,OUTDOORAIR:MIXER,ZONE RETAIL RETAIL C  - STORY GROUND PSZ-AC OA SYS OUTDOOR AIR MIXER,NODE 204,NODE 209,Air Nodes
 Component Set,108,AIRLOOPHVAC:OUTDOORAIRSYSTEM,ZONE RETAIL RETAIL C END_A - STORY GROUND PSZ-AC OA SYS,OUTDOORAIR:MIXER,ZONE RETAIL RETAIL C END_A - STORY GROUND PSZ-AC OA SYS OUTDOOR AIR MIXER,NODE 48,NODE 53,Air Nodes
 Component Set,109,COILSYSTEM:COOLING:DX,ZONE RETAIL BACK_SPACE A  - STORY GROUND PSZ-AC 1SPD DX AC CLG COIL COILSYSTEM,COIL:COOLING:DX:SINGLESPEED,ZONE RETAIL BACK_SPACE A  - STORY GROUND PSZ-AC 1SPD DX AC CLG COIL,NODE 65,NODE 64,Air Nodes
 Component Set,110,COILSYSTEM:COOLING:DX,ZONE RETAIL BACK_SPACE A END_B - STORY GROUND PSZ-AC 1SPD DX AC CLG COIL COILSYSTEM,COIL:COOLING:DX:SINGLESPEED,ZONE RETAIL BACK_SPACE A END_B - STORY GROUND PSZ-AC 1SPD DX AC CLG COIL,NODE 101,NODE 100,Air Nodes
 Component Set,111,COILSYSTEM:COOLING:DX,ZONE RETAIL BACK_SPACE B  - STORY GROUND PSZ-AC 1SPD DX AC CLG COIL COILSYSTEM,COIL:COOLING:DX:SINGLESPEED,ZONE RETAIL BACK_SPACE B  - STORY GROUND PSZ-AC 1SPD DX AC CLG COIL,NODE 221,NODE 220,Air Nodes
 Component Set,112,COILSYSTEM:COOLING:DX,ZONE RETAIL BACK_SPACE B END_B - STORY GROUND PSZ-AC 1SPD DX AC CLG COIL COILSYSTEM,COIL:COOLING:DX:SINGLESPEED,ZONE RETAIL BACK_SPACE B END_B - STORY GROUND PSZ-AC 1SPD DX AC CLG COIL,NODE 137,NODE 136,Air Nodes
 Component Set,113,COILSYSTEM:COOLING:DX,ZONE RETAIL BACK_SPACE C  - STORY GROUND PSZ-AC 1SPD DX AC CLG COIL COILSYSTEM,COIL:COOLING:DX:SINGLESPEED,ZONE RETAIL BACK_SPACE C  - STORY GROUND PSZ-AC 1SPD DX AC CLG COIL,NODE 77,NODE 76,Air Nodes
 Component Set,114,COILSYSTEM:COOLING:DX,ZONE RETAIL BACK_SPACE C END_B - STORY GROUND PSZ-AC 1SPD DX AC CLG COIL COILSYSTEM,COIL:COOLING:DX:SINGLESPEED,ZONE RETAIL BACK_SPACE C END_B - STORY GROUND PSZ-AC 1SPD DX AC CLG COIL,NODE 185,NODE 184,Air Nodes
 Component Set,115,COILSYSTEM:COOLING:DX,ZONE RETAIL ENTRY A  - STORY GROUND PSZ-AC 1SPD DX AC CLG COIL COILSYSTEM,COIL:COOLING:DX:SINGLESPEED,ZONE RETAIL ENTRY A  - STORY GROUND PSZ-AC 1SPD DX AC CLG COIL,NODE 173,NODE 172,Air Nodes
 Component Set,116,COILSYSTEM:COOLING:DX,ZONE RETAIL ENTRY B  - STORY GROUND PSZ-AC 1SPD DX AC CLG COIL COILSYSTEM,COIL:COOLING:DX:SINGLESPEED,ZONE RETAIL ENTRY B  - STORY GROUND PSZ-AC 1SPD DX AC CLG COIL,NODE 41,NODE 40,Air Nodes
 Component Set,117,COILSYSTEM:COOLING:DX,ZONE RETAIL ENTRY C  - STORY GROUND PSZ-AC 1SPD DX AC CLG COIL COILSYSTEM,COIL:COOLING:DX:SINGLESPEED,ZONE RETAIL ENTRY C  - STORY GROUND PSZ-AC 1SPD DX AC CLG COIL,NODE 233,NODE 232,Air Nodes
 Component Set,118,COILSYSTEM:COOLING:DX,ZONE RETAIL POINT_OF_SALE A  - STORY GROUND PSZ-AC 1SPD DX AC CLG COIL COILSYSTEM,COIL:COOLING:DX:SINGLESPEED,ZONE RETAIL POINT_OF_SALE A  - STORY GROUND PSZ-AC 1SPD DX AC CLG COIL,NODE 29,NODE 28,Air Nodes
 Component Set,119,COILSYSTEM:COOLING:DX,ZONE RETAIL POINT_OF_SALE B  - STORY GROUND PSZ-AC 1SPD DX AC CLG COIL COILSYSTEM,COIL:COOLING:DX:SINGLESPEED,ZONE RETAIL POINT_OF_SALE B  - STORY GROUND PSZ-AC 1SPD DX AC CLG COIL,NODE 197,NODE 196,Air Nodes
 Component Set,120,COILSYSTEM:COOLING:DX,ZONE RETAIL POINT_OF_SALE C  - STORY GROUND PSZ-AC 1SPD DX AC CLG COIL COILSYSTEM,COIL:COOLING:DX:SINGLESPEED,ZONE RETAIL POINT_OF_SALE C  - STORY GROUND PSZ-AC 1SPD DX AC CLG COIL,NODE 113,NODE 112,Air Nodes
 Component Set,121,COILSYSTEM:COOLING:DX,ZONE RETAIL RETAIL A  - STORY GROUND PSZ-AC 1SPD DX AC CLG COIL COILSYSTEM,COIL:COOLING:DX:SINGLESPEED,ZONE RETAIL RETAIL A  - STORY GROUND PSZ-AC 1SPD DX AC CLG COIL,NODE 149,NODE 148,Air Nodes
 Component Set,122,COILSYSTEM:COOLING:DX,ZONE RETAIL RETAIL A END_A - STORY GROUND PSZ-AC 1SPD DX AC CLG COIL COILSYSTEM,COIL:COOLING:DX:SINGLESPEED,ZONE RETAIL RETAIL A END_A - STORY GROUND PSZ-AC 1SPD DX AC CLG COIL,NODE 89,NODE 88,Air Nodes
 Component Set,123,COILSYSTEM:COOLING:DX,ZONE RETAIL RETAIL B  - STORY GROUND PSZ-AC 1SPD DX AC CLG COIL COILSYSTEM,COIL:COOLING:DX:SINGLESPEED,ZONE RETAIL RETAIL B  - STORY GROUND PSZ-AC 1SPD DX AC CLG COIL,NODE 125,NODE 124,Air Nodes
 Component Set,124,COILSYSTEM:COOLING:DX,ZONE RETAIL RETAIL B END_A - STORY GROUND PSZ-AC 1SPD DX AC CLG COIL COILSYSTEM,COIL:COOLING:DX:SINGLESPEED,ZONE RETAIL RETAIL B END_A - STORY GROUND PSZ-AC 1SPD DX AC CLG COIL,NODE 161,NODE 160,Air Nodes
 Component Set,125,COILSYSTEM:COOLING:DX,ZONE RETAIL RETAIL C  - STORY GROUND PSZ-AC 1SPD DX AC CLG COIL COILSYSTEM,COIL:COOLING:DX:SINGLESPEED,ZONE RETAIL RETAIL C  - STORY GROUND PSZ-AC 1SPD DX AC CLG COIL,NODE 209,NODE 208,Air Nodes
 Component Set,126,COILSYSTEM:COOLING:DX,ZONE RETAIL RETAIL C END_A - STORY GROUND PSZ-AC 1SPD DX AC CLG COIL COILSYSTEM,COIL:COOLING:DX:SINGLESPEED,ZONE RETAIL RETAIL C END_A - STORY GROUND PSZ-AC 1SPD DX AC CLG COIL,NODE 53,NODE 52,Air Nodes
! ===============================================================
! <# Plant Loops>,<Number of Plant Loops>
 #Plant Loops,0
! <Plant Loop>,<Plant Loop Name>,<Loop Type>,<Inlet Node Name>,<Outlet Node Name>,<Branch List>,<Connector List>
! <Plant Loop Connector>,<Connector Type>,<Connector Name>,<Loop Name>,<Loop Type>,<Number of Inlets/Outlets>
! <Plant Loop Connector Branches>,<Connector Node Count>,<Connector Type>,<Connector Name>,<Inlet Branch>,<Outlet Branch>,<Loop Name>,<Loop Type>
! <Plant Loop Connector Nodes>,<Connector Node Count>,<Connector Type>,<Connector Name>,<Inlet Node>,<Outlet Node>,<Loop Name>,<Loop Type>
! <Plant Loop Supply Connection>,<Plant Loop Name>,<Supply Side Outlet Node Name>,<Demand Side Inlet Node Name>
! <Plant Loop Return Connection>,<Plant Loop Name>,<Demand Side Outlet Node Name>,<Supply Side Inlet Node Name>
! ===============================================================
! <# Condenser Loops>,<Number of Condenser Loops>
 #Condenser Loops,0
! <Condenser Loop>,<Condenser Loop Name>,<Loop Type>,<Inlet Node Name>,<Outlet Node Name>,<Branch List>,<Connector List>
! <Condenser Loop Connector>,<Connector Type>,<Connector Name>,<Loop Name>,<Loop Type>,<Number of Inlets/Outlets>
! <Condenser Loop Connector Branches>,<Connector Node Count>,<Connector Type>,<Connector Name>,<Inlet Branch>,<Outlet Branch>,<Loop Name>,<Loop Type>
! <Condenser Loop Connector Nodes>,<Connector Node Count>,<Connector Type>,<Connector Name>,<Inlet Node>,<Outlet Node>,<Loop Name>,<Loop Type>
! <Condenser Loop Supply Connection>,<Condenser Loop Name>,<Supply Side Outlet Node Name>,<Demand Side Inlet Node Name>
! <Condenser Loop Return Connection>,<Condenser Loop Name>,<Demand Side Outlet Node Name>,<Supply Side Inlet Node Name>
! ===============================================================
! <# Controlled Zones>,<Number of Controlled Zones>
 #Controlled Zones,18
! <Controlled Zone>,<Controlled Zone Name>,<Equip List Name>,<Control List Name>,<Zone Node Name>,<Return Air Node Name>,<# Inlet Nodes>,<# Exhaust Nodes>
! <Controlled Zone Inlet>,<Inlet Node Count>,<Controlled Zone Name>,<Supply Air Inlet Node Name>,<SD Sys:Cooling/Heating [DD:Cooling] Inlet Node Name>,<DD Sys:Heating Inlet Node Name>
! <Controlled Zone Exhaust>,<Exhaust Node Count>,<Controlled Zone Name>,<Exhaust Air Node Name>
 Controlled Zone,ZONE RETAIL BACK_SPACE A  - STORY GROUND,ZONE RETAIL BACK_SPACE A  - STORY GROUND EQUIPMENT LIST,,NODE 13,NODE 66,1,0
   Controlled Zone Inlet,1,ZONE RETAIL BACK_SPACE A  - STORY GROUND,NODE 59,NODE 59,N/A
 Controlled Zone,ZONE RETAIL BACK_SPACE A END_B - STORY GROUND,ZONE RETAIL BACK_SPACE A END_B - STORY GROUND EQUIPMENT LIST,,NODE 16,NODE 102,1,0
   Controlled Zone Inlet,1,ZONE RETAIL BACK_SPACE A END_B - STORY GROUND,NODE 95,NODE 95,N/A
 Controlled Zone,ZONE RETAIL BACK_SPACE B  - STORY GROUND,ZONE RETAIL BACK_SPACE B  - STORY GROUND EQUIPMENT LIST,,NODE 14,NODE 222,1,0
   Controlled Zone Inlet,1,ZONE RETAIL BACK_SPACE B  - STORY GROUND,NODE 215,NODE 215,N/A
 Controlled Zone,ZONE RETAIL BACK_SPACE B END_B - STORY GROUND,ZONE RETAIL BACK_SPACE B END_B - STORY GROUND EQUIPMENT LIST,,NODE 17,NODE 138,1,0
   Controlled Zone Inlet,1,ZONE RETAIL BACK_SPACE B END_B - STORY GROUND,NODE 131,NODE 131,N/A
 Controlled Zone,ZONE RETAIL BACK_SPACE C  - STORY GROUND,ZONE RETAIL BACK_SPACE C  - STORY GROUND EQUIPMENT LIST,,NODE 15,NODE 78,1,0
   Controlled Zone Inlet,1,ZONE RETAIL BACK_SPACE C  - STORY GROUND,NODE 71,NODE 71,N/A
 Controlled Zone,ZONE RETAIL BACK_SPACE C END_B - STORY GROUND,ZONE RETAIL BACK_SPACE C END_B - STORY GROUND EQUIPMENT LIST,,NODE 18,NODE 186,1,0
   Controlled Zone Inlet,1,ZONE RETAIL BACK_SPACE C END_B - STORY GROUND,NODE 179,NODE 179,N/A
 Controlled Zone,ZONE RETAIL ENTRY A  - STORY GROUND,ZONE RETAIL ENTRY A  - STORY GROUND EQUIPMENT LIST,,NODE 7,NODE 174,1,0
   Controlled Zone Inlet,1,ZONE RETAIL ENTRY A  - STORY GROUND,NODE 167,NODE 167,N/A
 Controlled Zone,ZONE RETAIL ENTRY B  - STORY GROUND,ZONE RETAIL ENTRY B  - STORY GROUND EQUIPMENT LIST,,NODE 8,NODE 42,1,0
   Controlled Zone Inlet,1,ZONE RETAIL ENTRY B  - STORY GROUND,NODE 35,NODE 35,N/A
 Controlled Zone,ZONE RETAIL ENTRY C  - STORY GROUND,ZONE RETAIL ENTRY C  - STORY GROUND EQUIPMENT LIST,,NODE 9,NODE 234,1,0
   Controlled Zone Inlet,1,ZONE RETAIL ENTRY C  - STORY GROUND,NODE 227,NODE 227,N/A
 Controlled Zone,ZONE RETAIL POINT_OF_SALE A  - STORY GROUND,ZONE RETAIL POINT_OF_SALE A  - STORY GROUND EQUIPMENT LIST,,NODE 10,NODE 30,1,0
   Controlled Zone Inlet,1,ZONE RETAIL POINT_OF_SALE A  - STORY GROUND,NODE 23,NODE 23,N/A
 Controlled Zone,ZONE RETAIL POINT_OF_SALE B  - STORY GROUND,ZONE RETAIL POINT_OF_SALE B  - STORY GROUND EQUIPMENT LIST,,NODE 11,NODE 198,1,0
   Controlled Zone Inlet,1,ZONE RETAIL POINT_OF_SALE B  - STORY GROUND,NODE 191,NODE 191,N/A
 Controlled Zone,ZONE RETAIL POINT_OF_SALE C  - STORY GROUND,ZONE RETAIL POINT_OF_SALE C  - STORY GROUND EQUIPMENT LIST,,NODE 12,NODE 114,1,0
   Controlled Zone Inlet,1,ZONE RETAIL POINT_OF_SALE C  - STORY GROUND,NODE 107,NODE 107,N/A
 Controlled Zone,ZONE RETAIL RETAIL A  - STORY GROUND,ZONE RETAIL RETAIL A  - STORY GROUND EQUIPMENT LIST,,NODE 4,NODE 150,1,0
   Controlled Zone Inlet,1,ZONE RETAIL RETAIL A  - STORY GROUND,NODE 143,NODE 143,N/A
 Controlled Zone,ZONE RETAIL RETAIL A END_A - STORY GROUND,ZONE RETAIL RETAIL A END_A - STORY GROUND EQUIPMENT LIST,,NODE 1,NODE 90,1,0
   Controlled Zone Inlet,1,ZONE RETAIL RETAIL A END_A - STORY GROUND,NODE 83,NODE 83,N/A
 Controlled Zone,ZONE RETAIL RETAIL B  - STORY GROUND,ZONE RETAIL RETAIL B  - STORY GROUND EQUIPMENT LIST,,NODE 5,NODE 126,1,0
   Controlled Zone Inlet,1,ZONE RETAIL RETAIL B  - STORY GROUND,NODE 119,NODE 119,N/A
 Controlled Zone,ZONE RETAIL RETAIL B END_A - STORY GROUND,ZONE RETAIL RETAIL B END_A - STORY GROUND EQUIPMENT LIST,,NODE 2,NODE 162,1,0
   Controlled Zone Inlet,1,ZONE RETAIL RETAIL B END_A - STORY GROUND,NODE 155,NODE 155,N/A
 Controlled Zone,ZONE RETAIL RETAIL C  - STORY GROUND,ZONE RETAIL RETAIL C  - STORY GROUND EQUIPMENT LIST,,NODE 6,NODE 210,1,0
   Controlled Zone Inlet,1,ZONE RETAIL RETAIL C  - STORY GROUND,NODE 203,NODE 203,N/A
 Controlled Zone,ZONE RETAIL RETAIL C END_A - STORY GROUND,ZONE RETAIL RETAIL C END_A - STORY GROUND EQUIPMENT LIST,,NODE 3,NODE 54,1,0
   Controlled Zone Inlet,1,ZONE RETAIL RETAIL C END_A - STORY GROUND,NODE 47,NODE 47,N/A
! ===============================================================
! <#Zone Equipment Lists>,<Number of Zone Equipment Lists>
 #Zone Equipment Lists,18
! <Zone Equipment List>,<Zone Equipment List Count>,<Zone Equipment List Name>,<Zone Name>,<Number of Components>
! <Zone Equipment Component>,<Component Count>,<Component Type>,<Component Name>,<Zone Name>,<Heating Priority>,<Cooling Priority>
 Zone Equipment List,1,ZONE RETAIL BACK_SPACE A  - STORY GROUND EQUIPMENT LIST,ZONE RETAIL BACK_SPACE A  - STORY GROUND,1
   Zone Equipment Component,1,AIRTERMINAL:SINGLEDUCT:UNCONTROLLED,ZONE RETAIL BACK_SPACE A  - STORY GROUND PSZ-AC DIFFUSER,ZONE RETAIL BACK_SPACE A  - STORY GROUND,1,1
 Zone Equipment List,2,ZONE RETAIL BACK_SPACE A END_B - STORY GROUND EQUIPMENT LIST,ZONE RETAIL BACK_SPACE A END_B - STORY GROUND,1
   Zone Equipment Component,1,AIRTERMINAL:SINGLEDUCT:UNCONTROLLED,ZONE RETAIL BACK_SPACE A END_B - STORY GROUND PSZ-AC DIFFUSER,ZONE RETAIL BACK_SPACE A END_B - STORY GROUND,1,1
 Zone Equipment List,3,ZONE RETAIL BACK_SPACE B  - STORY GROUND EQUIPMENT LIST,ZONE RETAIL BACK_SPACE B  - STORY GROUND,1
   Zone Equipment Component,1,AIRTERMINAL:SINGLEDUCT:UNCONTROLLED,ZONE RETAIL BACK_SPACE B  - STORY GROUND PSZ-AC DIFFUSER,ZONE RETAIL BACK_SPACE B  - STORY GROUND,1,1
 Zone Equipment List,4,ZONE RETAIL BACK_SPACE B END_B - STORY GROUND EQUIPMENT LIST,ZONE RETAIL BACK_SPACE B END_B - STORY GROUND,1
   Zone Equipment Component,1,AIRTERMINAL:SINGLEDUCT:UNCONTROLLED,ZONE RETAIL BACK_SPACE B END_B - STORY GROUND PSZ-AC DIFFUSER,ZONE RETAIL BACK_SPACE B END_B - STORY GROUND,1,1
 Zone Equipment List,5,ZONE RETAIL BACK_SPACE C  - STORY GROUND EQUIPMENT LIST,ZONE RETAIL BACK_SPACE C  - STORY GROUND,1
   Zone Equipment Component,1,AIRTERMINAL:SINGLEDUCT:UNCONTROLLED,ZONE RETAIL BACK_SPACE C  - STORY GROUND PSZ-AC DIFFUSER,ZONE RETAIL BACK_SPACE C  - STORY GROUND,1,1
 Zone Equipment List,6,ZONE RETAIL BACK_SPACE C END_B - STORY GROUND EQUIPMENT LIST,ZONE RETAIL BACK_SPACE C END_B - STORY GROUND,1
   Zone Equipment Component,1,AIRTERMINAL:SINGLEDUCT:UNCONTROLLED,ZONE RETAIL BACK_SPACE C END_B - STORY GROUND PSZ-AC DIFFUSER,ZONE RETAIL BACK_SPACE C END_B - STORY GROUND,1,1
 Zone Equipment List,7,ZONE RETAIL ENTRY A  - STORY GROUND EQUIPMENT LIST,ZONE RETAIL ENTRY A  - STORY GROUND,1
   Zone Equipment Component,1,AIRTERMINAL:SINGLEDUCT:UNCONTROLLED,ZONE RETAIL ENTRY A  - STORY GROUND PSZ-AC DIFFUSER,ZONE RETAIL ENTRY A  - STORY GROUND,1,1
 Zone Equipment List,8,ZONE RETAIL ENTRY B  - STORY GROUND EQUIPMENT LIST,ZONE RETAIL ENTRY B  - STORY GROUND,1
   Zone Equipment Component,1,AIRTERMINAL:SINGLEDUCT:UNCONTROLLED,ZONE RETAIL ENTRY B  - STORY GROUND PSZ-AC DIFFUSER,ZONE RETAIL ENTRY B  - STORY GROUND,1,1
 Zone Equipment List,9,ZONE RETAIL ENTRY C  - STORY GROUND EQUIPMENT LIST,ZONE RETAIL ENTRY C  - STORY GROUND,1
[...]
 Non-Parent Node Connection,NODE 53,CONTROLLER:OUTDOORAIR,ZONE RETAIL RETAIL C END_A - STORY GROUND PSZ-AC OA SYS CONTROLLER,Sensor,1
 Non-Parent Node Connection,NODE 48,CONTROLLER:OUTDOORAIR,ZONE RETAIL RETAIL C END_A - STORY GROUND PSZ-AC OA SYS CONTROLLER,Actuator,1
 Non-Parent Node Connection,NODE 49,CONTROLLER:OUTDOORAIR,ZONE RETAIL RETAIL C END_A - STORY GROUND PSZ-AC OA SYS CONTROLLER,Actuator,1
 Non-Parent Node Connection,NODE 43,CONTROLLER:OUTDOORAIR,ZONE RETAIL RETAIL C END_A - STORY GROUND PSZ-AC OA SYS CONTROLLER,Sensor,1
 Non-Parent Node Connection,NODE 65,COIL:COOLING:DX:SINGLESPEED,ZONE RETAIL BACK_SPACE A  - STORY GROUND PSZ-AC 1SPD DX AC CLG COIL,Inlet,1
 Non-Parent Node Connection,NODE 64,COIL:COOLING:DX:SINGLESPEED,ZONE RETAIL BACK_SPACE A  - STORY GROUND PSZ-AC 1SPD DX AC CLG COIL,Outlet,1
 Non-Parent Node Connection,NODE 101,COIL:COOLING:DX:SINGLESPEED,ZONE RETAIL BACK_SPACE A END_B - STORY GROUND PSZ-AC 1SPD DX AC CLG COIL,Inlet,1
 Non-Parent Node Connection,NODE 100,COIL:COOLING:DX:SINGLESPEED,ZONE RETAIL BACK_SPACE A END_B - STORY GROUND PSZ-AC 1SPD DX AC CLG COIL,Outlet,1
 Non-Parent Node Connection,NODE 221,COIL:COOLING:DX:SINGLESPEED,ZONE RETAIL BACK_SPACE B  - STORY GROUND PSZ-AC 1SPD DX AC CLG COIL,Inlet,1
 Non-Parent Node Connection,NODE 220,COIL:COOLING:DX:SINGLESPEED,ZONE RETAIL BACK_SPACE B  - STORY GROUND PSZ-AC 1SPD DX AC CLG COIL,Outlet,1
 Non-Parent Node Connection,NODE 137,COIL:COOLING:DX:SINGLESPEED,ZONE RETAIL BACK_SPACE B END_B - STORY GROUND PSZ-AC 1SPD DX AC CLG COIL,Inlet,1
 Non-Parent Node Connection,NODE 136,COIL:COOLING:DX:SINGLESPEED,ZONE RETAIL BACK_SPACE B END_B - STORY GROUND PSZ-AC 1SPD DX AC CLG COIL,Outlet,1
 Non-Parent Node Connection,NODE 77,COIL:COOLING:DX:SINGLESPEED,ZONE RETAIL BACK_SPACE C  - STORY GROUND PSZ-AC 1SPD DX AC CLG COIL,Inlet,1
 Non-Parent Node Connection,NODE 76,COIL:COOLING:DX:SINGLESPEED,ZONE RETAIL BACK_SPACE C  - STORY GROUND PSZ-AC 1SPD DX AC CLG COIL,Outlet,1
 Non-Parent Node Connection,NODE 185,COIL:COOLING:DX:SINGLESPEED,ZONE RETAIL BACK_SPACE C END_B - STORY GROUND PSZ-AC 1SPD DX AC CLG COIL,Inlet,1
 Non-Parent Node Connection,NODE 184,COIL:COOLING:DX:SINGLESPEED,ZONE RETAIL BACK_SPACE C END_B - STORY GROUND PSZ-AC 1SPD DX AC CLG COIL,Outlet,1
 Non-Parent Node Connection,NODE 173,COIL:COOLING:DX:SINGLESPEED,ZONE RETAIL ENTRY A  - STORY GROUND PSZ-AC 1SPD DX AC CLG COIL,Inlet,1
 Non-Parent Node Connection,NODE 172,COIL:COOLING:DX:SINGLESPEED,ZONE RETAIL ENTRY A  - STORY GROUND PSZ-AC 1SPD DX AC CLG COIL,Outlet,1
 Non-Parent Node Connection,NODE 41,COIL:COOLING:DX:SINGLESPEED,ZONE RETAIL ENTRY B  - STORY GROUND PSZ-AC 1SPD DX AC CLG COIL,Inlet,1
 Non-Parent Node Connection,NODE 40,COIL:COOLING:DX:SINGLESPEED,ZONE RETAIL ENTRY B  - STORY GROUND PSZ-AC 1SPD DX AC CLG COIL,Outlet,1
 Non-Parent Node Connection,NODE 233,COIL:COOLING:DX:SINGLESPEED,ZONE RETAIL ENTRY C  - STORY GROUND PSZ-AC 1SPD DX AC CLG COIL,Inlet,1
 Non-Parent Node Connection,NODE 232,COIL:COOLING:DX:SINGLESPEED,ZONE RETAIL ENTRY C  - STORY GROUND PSZ-AC 1SPD DX AC CLG COIL,Outlet,1
 Non-Parent Node Connection,NODE 29,COIL:COOLING:DX:SINGLESPEED,ZONE RETAIL POINT_OF_SALE A  - STORY GROUND PSZ-AC 1SPD DX AC CLG COIL,Inlet,1
 Non-Parent Node Connection,NODE 28,COIL:COOLING:DX:SINGLESPEED,ZONE RETAIL POINT_OF_SALE A  - STORY GROUND PSZ-AC 1SPD DX AC CLG COIL,Outlet,1
 Non-Parent Node Connection,NODE 197,COIL:COOLING:DX:SINGLESPEED,ZONE RETAIL POINT_OF_SALE B  - STORY GROUND PSZ-AC 1SPD DX AC CLG COIL,Inlet,1
 Non-Parent Node Connection,NODE 196,COIL:COOLING:DX:SINGLESPEED,ZONE RETAIL POINT_OF_SALE B  - STORY GROUND PSZ-AC 1SPD DX AC CLG COIL,Outlet,1
 Non-Parent Node Connection,NODE 113,COIL:COOLING:DX:SINGLESPEED,ZONE RETAIL POINT_OF_SALE C  - STORY GROUND PSZ-AC 1SPD DX AC CLG COIL,Inlet,1
 Non-Parent Node Connection,NODE 112,COIL:COOLING:DX:SINGLESPEED,ZONE RETAIL POINT_OF_SALE C  - STORY GROUND PSZ-AC 1SPD DX AC CLG COIL,Outlet,1
 Non-Parent Node Connection,NODE 149,COIL:COOLING:DX:SINGLESPEED,ZONE RETAIL RETAIL A  - STORY GROUND PSZ-AC 1SPD DX AC CLG COIL,Inlet,1
 Non-Parent Node Connection,NODE 148,COIL:COOLING:DX:SINGLESPEED,ZONE RETAIL RETAIL A  - STORY GROUND PSZ-AC 1SPD DX AC CLG COIL,Outlet,1
 Non-Parent Node Connection,NODE 89,COIL:COOLING:DX:SINGLESPEED,ZONE RETAIL RETAIL A END_A - STORY GROUND PSZ-AC 1SPD DX AC CLG COIL,Inlet,1
 Non-Parent Node Connection,NODE 88,COIL:COOLING:DX:SINGLESPEED,ZONE RETAIL RETAIL A END_A - STORY GROUND PSZ-AC 1SPD DX AC CLG COIL,Outlet,1
 Non-Parent Node Connection,NODE 125,COIL:COOLING:DX:SINGLESPEED,ZONE RETAIL RETAIL B  - STORY GROUND PSZ-AC 1SPD DX AC CLG COIL,Inlet,1
 Non-Parent Node Connection,NODE 124,COIL:COOLING:DX:SINGLESPEED,ZONE RETAIL RETAIL B  - STORY GROUND PSZ-AC 1SPD DX AC CLG COIL,Outlet,1
 Non-Parent Node Connection,NODE 161,COIL:COOLING:DX:SINGLESPEED,ZONE RETAIL RETAIL B END_A - STORY GROUND PSZ-AC 1SPD DX AC CLG COIL,Inlet,1
 Non-Parent Node Connection,NODE 160,COIL:COOLING:DX:SINGLESPEED,ZONE RETAIL RETAIL B END_A - STORY GROUND PSZ-AC 1SPD DX AC CLG COIL,Outlet,1
 Non-Parent Node Connection,NODE 209,COIL:COOLING:DX:SINGLESPEED,ZONE RETAIL RETAIL C  - STORY GROUND PSZ-AC 1SPD DX AC CLG COIL,Inlet,1
 Non-Parent Node Connection,NODE 208,COIL:COOLING:DX:SINGLESPEED,ZONE RETAIL RETAIL C  - STORY GROUND PSZ-AC 1SPD DX AC CLG COIL,Outlet,1
 Non-Parent Node Connection,NODE 53,COIL:COOLING:DX:SINGLESPEED,ZONE RETAIL RETAIL C END_A - STORY GROUND PSZ-AC 1SPD DX AC CLG COIL,Inlet,1
 Non-Parent Node Connection,NODE 52,COIL:COOLING:DX:SINGLESPEED,ZONE RETAIL RETAIL C END_A - STORY GROUND PSZ-AC 1SPD DX AC CLG COIL,Outlet,1
 Non-Parent Node Connection,NODE 63,COIL:HEATING:ELECTRIC,ZONE RETAIL BACK_SPACE A  - STORY GROUND PSZ-AC ELECTRIC BACKUP HTG COIL,Inlet,1
 Non-Parent Node Connection,NODE 62,COIL:HEATING:ELECTRIC,ZONE RETAIL BACK_SPACE A  - STORY GROUND PSZ-AC ELECTRIC BACKUP HTG COIL,Outlet,1
 Non-Parent Node Connection,NODE 62,COIL:HEATING:ELECTRIC,ZONE RETAIL BACK_SPACE A  - STORY GROUND PSZ-AC ELECTRIC BACKUP HTG COIL,Sensor,1
 Non-Parent Node Connection,NODE 99,COIL:HEATING:ELECTRIC,ZONE RETAIL BACK_SPACE A END_B - STORY GROUND PSZ-AC ELECTRIC BACKUP HTG COIL,Inlet,1
 Non-Parent Node Connection,NODE 98,COIL:HEATING:ELECTRIC,ZONE RETAIL BACK_SPACE A END_B - STORY GROUND PSZ-AC ELECTRIC BACKUP HTG COIL,Outlet,1
 Non-Parent Node Connection,NODE 98,COIL:HEATING:ELECTRIC,ZONE RETAIL BACK_SPACE A END_B - STORY GROUND PSZ-AC ELECTRIC BACKUP HTG COIL,Sensor,1
 Non-Parent Node Connection,NODE 219,COIL:HEATING:ELECTRIC,ZONE RETAIL BACK_SPACE B  - STORY GROUND PSZ-AC ELECTRIC BACKUP HTG COIL,Inlet,1
 Non-Parent Node Connection,NODE 218,COIL:HEATING:ELECTRIC,ZONE RETAIL BACK_SPACE B  - STORY GROUND PSZ-AC ELECTRIC BACKUP HTG COIL,Outlet,1
 Non-Parent Node Connection,NODE 218,COIL:HEATING:ELECTRIC,ZONE RETAIL BACK_SPACE B  - STORY GROUND PSZ-AC ELECTRIC BACKUP HTG COIL,Sensor,1
 Non-Parent Node Connection,NODE 135,COIL:HEATING:ELECTRIC,ZONE RETAIL BACK_SPACE B END_B - STORY GROUND PSZ-AC ELECTRIC BACKUP HTG COIL,Inlet,1
 Non-Parent Node Connection,NODE 134,COIL:HEATING:ELECTRIC,ZONE RETAIL BACK_SPACE B END_B - STORY GROUND PSZ-AC ELECTRIC BACKUP HTG COIL,Outlet,1
 Non-Parent Node Connection,NODE 134,COIL:HEATING:ELECTRIC,ZONE RETAIL BACK_SPACE B END_B - STORY GROUND PSZ-AC ELECTRIC BACKUP HTG COIL,Sensor,1
 Non-Parent Node Connection,NODE 75,COIL:HEATING:ELECTRIC,ZONE RETAIL BACK_SPACE C  - STORY GROUND PSZ-AC ELECTRIC BACKUP HTG COIL,Inlet,1
 Non-Parent Node Connection,NODE 74,COIL:HEATING:ELECTRIC,ZONE RETAIL BACK_SPACE C  - STORY GROUND PSZ-AC ELECTRIC BACKUP HTG COIL,Outlet,1
 Non-Parent Node Connection,NODE 74,COIL:HEATING:ELECTRIC,ZONE RETAIL BACK_SPACE C  - STORY GROUND PSZ-AC ELECTRIC BACKUP HTG COIL,Sensor,1
 Non-Parent Node Connection,NODE 183,COIL:HEATING:ELECTRIC,ZONE RETAIL BACK_SPACE C END_B - STORY GROUND PSZ-AC ELECTRIC BACKUP HTG COIL,Inlet,1
 Non-Parent Node Connection,NODE 182,COIL:HEATING:ELECTRIC,ZONE RETAIL BACK_SPACE C END_B - STORY GROUND PSZ-AC ELECTRIC BACKUP HTG COIL,Outlet,1
 Non-Parent Node Connection,NODE 182,COIL:HEATING:ELECTRIC,ZONE RETAIL BACK_SPACE C END_B - STORY GROUND PSZ-AC ELECTRIC BACKUP HTG COIL,Sensor,1
 Non-Parent Node Connection,NODE 171,COIL:HEATING:ELECTRIC,ZONE RETAIL ENTRY A  - STORY GROUND PSZ-AC ELECTRIC BACKUP HTG COIL,Inlet,1
 Non-Parent Node Connection,NODE 170,COIL:HEATING:ELECTRIC,ZONE RETAIL ENTRY A  - STORY GROUND PSZ-AC ELECTRIC BACKUP HTG COIL,Outlet,1
 Non-Parent Node Connection,NODE 170,COIL:HEATING:ELECTRIC,ZONE RETAIL ENTRY A  - STORY GROUND PSZ-AC ELECTRIC BACKUP HTG COIL,Sensor,1
 Non-Parent Node Connection,NODE 39,COIL:HEATING:ELECTRIC,ZONE RETAIL ENTRY B  - STORY GROUND PSZ-AC ELECTRIC BACKUP HTG COIL,Inlet,1
 Non-Parent Node Connection,NODE 38,COIL:HEATING:ELECTRIC,ZONE RETAIL ENTRY B  - STORY GROUND PSZ-AC ELECTRIC BACKUP HTG COIL,Outlet,1
 Non-Parent Node Connection,NODE 38,COIL:HEATING:ELECTRIC,ZONE RETAIL ENTRY B  - STORY GROUND PSZ-AC ELECTRIC BACKUP HTG COIL,Sensor,1
 Non-Parent Node Connection,NODE 231,COIL:HEATING:ELECTRIC,ZONE RETAIL ENTRY C  - STORY GROUND PSZ-AC ELECTRIC BACKUP HTG COIL,Inlet,1
 Non-Parent Node Connection,NODE 230,COIL:HEATING:ELECTRIC,ZONE RETAIL ENTRY C  - STORY GROUND PSZ-AC ELECTRIC BACKUP HTG COIL,Outlet,1
 Non-Parent Node Connection,NODE 230,COIL:HEATING:ELECTRIC,ZONE RETAIL ENTRY C  - STORY GROUND PSZ-AC ELECTRIC BACKUP HTG COIL,Sensor,1
 Non-Parent Node Connection,NODE 27,COIL:HEATING:ELECTRIC,ZONE RETAIL POINT_OF_SALE A  - STORY GROUND PSZ-AC ELECTRIC BACKUP HTG COIL,Inlet,1
 Non-Parent Node Connection,NODE 26,COIL:HEATING:ELECTRIC,ZONE RETAIL POINT_OF_SALE A  - STORY GROUND PSZ-AC ELECTRIC BACKUP HTG COIL,Outlet,1
 Non-Parent Node Connection,NODE 26,COIL:HEATING:ELECTRIC,ZONE RETAIL POINT_OF_SALE A  - STORY GROUND PSZ-AC ELECTRIC BACKUP HTG COIL,Sensor,1
 Non-Parent Node Connection,NODE 195,COIL:HEATING:ELECTRIC,ZONE RETAIL POINT_OF_SALE B  - STORY GROUND PSZ-AC ELECTRIC BACKUP HTG COIL,Inlet,1
 Non-Parent Node Connection,NODE 194,COIL:HEATING:ELECTRIC,ZONE RETAIL POINT_OF_SALE B  - STORY GROUND PSZ-AC ELECTRIC BACKUP HTG COIL,Outlet,1
 Non-Parent Node Connection,NODE 194,COIL:HEATING:ELECTRIC,ZONE RETAIL POINT_OF_SALE B  - STORY GROUND PSZ-AC ELECTRIC BACKUP HTG COIL,Sensor,1
 Non-Parent Node Connection,NODE 111,COIL:HEATING:ELECTRIC,ZONE RETAIL POINT_OF_SALE C  - STORY GROUND PSZ-AC ELECTRIC BACKUP HTG COIL,Inlet,1
 Non-Parent Node Connection,NODE 110,COIL:HEATING:ELECTRIC,ZONE RETAIL POINT_OF_SALE C  - STORY GROUND PSZ-AC ELECTRIC BACKUP HTG COIL,Outlet,1
 Non-Parent Node Connection,NODE 110,COIL:HEATING:ELECTRIC,ZONE RETAIL POINT_OF_SALE C  - STORY GROUND PSZ-AC ELECTRIC BACKUP HTG COIL,Sensor,1
 Non-Parent Node Connection,NODE 147,COIL:HEATING:ELECTRIC,ZONE RETAIL RETAIL A  - STORY GROUND PSZ-AC ELECTRIC BACKUP HTG COIL,Inlet,1
 Non-Parent Node Connection,NODE 146,COIL:HEATING:ELECTRIC,ZONE RETAIL RETAIL A  - STORY GROUND PSZ-AC ELECTRIC BACKUP HTG COIL,Outlet,1
 Non-Parent Node Connection,NODE 146,COIL:HEATING:ELECTRIC,ZONE RETAIL RETAIL A  - STORY GROUND PSZ-AC ELECTRIC BACKUP HTG COIL,Sensor,1
 Non-Parent Node Connection,NODE 87,COIL:HEATING:ELECTRIC,ZONE RETAIL RETAIL A END_A - STORY GROUND PSZ-AC ELECTRIC BACKUP HTG COIL,Inlet,1
 Non-Parent Node Connection,NODE 86,COIL:HEATING:ELECTRIC,ZONE RETAIL RETAIL A END_A - STORY GROUND PSZ-AC ELECTRIC BACKUP HTG COIL,Outlet,1
 Non-Parent Node Connection,NODE 86,COIL:HEATING:ELECTRIC,ZONE RETAIL RETAIL A END_A - STORY GROUND PSZ-AC ELECTRIC BACKUP HTG COIL,Sensor,1
 Non-Parent Node Connection,NODE 123,COIL:HEATING:ELECTRIC,ZONE RETAIL RETAIL B  - STORY GROUND PSZ-AC ELECTRIC BACKUP HTG COIL,Inlet,1
 Non-Parent Node Connection,NODE 122,COIL:HEATING:ELECTRIC,ZONE RETAIL RETAIL B  - STORY GROUND PSZ-AC ELECTRIC BACKUP HTG COIL,Outlet,1
 Non-Parent Node Connection,NODE 122,COIL:HEATING:ELECTRIC,ZONE RETAIL RETAIL B  - STORY GROUND PSZ-AC ELECTRIC BACKUP HTG COIL,Sensor,1
 Non-Parent Node Connection,NODE 159,COIL:HEATING:ELECTRIC,ZONE RETAIL RETAIL B END_A - STORY GROUND PSZ-AC ELECTRIC BACKUP HTG COIL,Inlet,1
 Non-Parent Node Connection,NODE 158,COIL:HEATING:ELECTRIC,ZONE RETAIL RETAIL B END_A - STORY GROUND PSZ-AC ELECTRIC BACKUP HTG COIL,Outlet,1
 Non-Parent Node Connection,NODE 158,COIL:HEATING:ELECTRIC,ZONE RETAIL RETAIL B END_A - STORY GROUND PSZ-AC ELECTRIC BACKUP HTG COIL,Sensor,1
 Non-Parent Node Connection,NODE 207,COIL:HEATING:ELECTRIC,ZONE RETAIL RETAIL C  - STORY GROUND PSZ-AC ELECTRIC BACKUP HTG COIL,Inlet,1
 Non-Parent Node Connection,NODE 206,COIL:HEATING:ELECTRIC,ZONE RETAIL RETAIL C  - STORY GROUND PSZ-AC ELECTRIC BACKUP HTG COIL,Outlet,1
 Non-Parent Node Connection,NODE 206,COIL:HEATING:ELECTRIC,ZONE RETAIL RETAIL C  - STORY GROUND PSZ-AC ELECTRIC BACKUP HTG COIL,Sensor,1
 Non-Parent Node Connection,NODE 51,COIL:HEATING:ELECTRIC,ZONE RETAIL RETAIL C END_A - STORY GROUND PSZ-AC ELECTRIC BACKUP HTG COIL,Inlet,1
 Non-Parent Node Connection,NODE 50,COIL:HEATING:ELECTRIC,ZONE RETAIL RETAIL C END_A - STORY GROUND PSZ-AC ELECTRIC BACKUP HTG COIL,Outlet,1
 Non-Parent Node Connection,NODE 50,COIL:HEATING:ELECTRIC,ZONE RETAIL RETAIL C END_A - STORY GROUND PSZ-AC ELECTRIC BACKUP HTG COIL,Sensor,1
 Non-Parent Node Connection,NODE 64,COIL:HEATING:FUEL,ZONE RETAIL BACK_SPACE A  - STORY GROUND PSZ-AC GAS HTG COIL,Inlet,1
 Non-Parent Node Connection,NODE 63,COIL:HEATING:FUEL,ZONE RETAIL BACK_SPACE A  - STORY GROUND PSZ-AC GAS HTG COIL,Outlet,1
 Non-Parent Node Connection,NODE 63,COIL:HEATING:FUEL,ZONE RETAIL BACK_SPACE A  - STORY GROUND PSZ-AC GAS HTG COIL,Sensor,1
 Non-Parent Node Connection,NODE 100,COIL:HEATING:FUEL,ZONE RETAIL BACK_SPACE A END_B - STORY GROUND PSZ-AC GAS HTG COIL,Inlet,1
 Non-Parent Node Connection,NODE 99,COIL:HEATING:FUEL,ZONE RETAIL BACK_SPACE A END_B - STORY GROUND PSZ-AC GAS HTG COIL,Outlet,1
 Non-Parent Node Connection,NODE 99,COIL:HEATING:FUEL,ZONE RETAIL BACK_SPACE A END_B - STORY GROUND PSZ-AC GAS HTG COIL,Sensor,1
 Non-Parent Node Connection,NODE 220,COIL:HEATING:FUEL,ZONE RETAIL BACK_SPACE B  - STORY GROUND PSZ-AC GAS HTG COIL,Inlet,1
 Non-Parent Node Connection,NODE 219,COIL:HEATING:FUEL,ZONE RETAIL BACK_SPACE B  - STORY GROUND PSZ-AC GAS HTG COIL,Outlet,1
 Non-Parent Node Connection,NODE 219,COIL:HEATING:FUEL,ZONE RETAIL BACK_SPACE B  - STORY GROUND PSZ-AC GAS HTG COIL,Sensor,1
 Non-Parent Node Connection,NODE 136,COIL:HEATING:FUEL,ZONE RETAIL BACK_SPACE B END_B - STORY GROUND PSZ-AC GAS HTG COIL,Inlet,1
 Non-Parent Node Connection,NODE 135,COIL:HEATING:FUEL,ZONE RETAIL BACK_SPACE B END_B - STORY GROUND PSZ-AC GAS HTG COIL,Outlet,1
 Non-Parent Node Connection,NODE 135,COIL:HEATING:FUEL,ZONE RETAIL BACK_SPACE B END_B - STORY GROUND PSZ-AC GAS HTG COIL,Sensor,1
 Non-Parent Node Connection,NODE 76,COIL:HEATING:FUEL,ZONE RETAIL BACK_SPACE C  - STORY GROUND PSZ-AC GAS HTG COIL,Inlet,1
 Non-Parent Node Connection,NODE 75,COIL:HEATING:FUEL,ZONE RETAIL BACK_SPACE C  - STORY GROUND PSZ-AC GAS HTG COIL,Outlet,1
 Non-Parent Node Connection,NODE 75,COIL:HEATING:FUEL,ZONE RETAIL BACK_SPACE C  - STORY GROUND PSZ-AC GAS HTG COIL,Sensor,1
 Non-Parent Node Connection,NODE 184,COIL:HEATING:FUEL,ZONE RETAIL BACK_SPACE C END_B - STORY GROUND PSZ-AC GAS HTG COIL,Inlet,1
 Non-Parent Node Connection,NODE 183,COIL:HEATING:FUEL,ZONE RETAIL BACK_SPACE C END_B - STORY GROUND PSZ-AC GAS HTG COIL,Outlet,1
 Non-Parent Node Connection,NODE 183,COIL:HEATING:FUEL,ZONE RETAIL BACK_SPACE C END_B - STORY GROUND PSZ-AC GAS HTG COIL,Sensor,1
 Non-Parent Node Connection,NODE 172,COIL:HEATING:FUEL,ZONE RETAIL ENTRY A  - STORY GROUND PSZ-AC GAS HTG COIL,Inlet,1
 Non-Parent Node Connection,NODE 171,COIL:HEATING:FUEL,ZONE RETAIL ENTRY A  - STORY GROUND PSZ-AC GAS HTG COIL,Outlet,1
 Non-Parent Node Connection,NODE 171,COIL:HEATING:FUEL,ZONE RETAIL ENTRY A  - STORY GROUND PSZ-AC GAS HTG COIL,Sensor,1
 Non-Parent Node Connection,NODE 40,COIL:HEATING:FUEL,ZONE RETAIL ENTRY B  - STORY GROUND PSZ-AC GAS HTG COIL,Inlet,1
 Non-Parent Node Connection,NODE 39,COIL:HEATING:FUEL,ZONE RETAIL ENTRY B  - STORY GROUND PSZ-AC GAS HTG COIL,Outlet,1
 Non-Parent Node Connection,NODE 39,COIL:HEATING:FUEL,ZONE RETAIL ENTRY B  - STORY GROUND PSZ-AC GAS HTG COIL,Sensor,1
 Non-Parent Node Connection,NODE 232,COIL:HEATING:FUEL,ZONE RETAIL ENTRY C  - STORY GROUND PSZ-AC GAS HTG COIL,Inlet,1
 Non-Parent Node Connection,NODE 231,COIL:HEATING:FUEL,ZONE RETAIL ENTRY C  - STORY GROUND PSZ-AC GAS HTG COIL,Outlet,1
 Non-Parent Node Connection,NODE 231,COIL:HEATING:FUEL,ZONE RETAIL ENTRY C  - STORY GROUND PSZ-AC GAS HTG COIL,Sensor,1
 Non-Parent Node Connection,NODE 28,COIL:HEATING:FUEL,ZONE RETAIL POINT_OF_SALE A  - STORY GROUND PSZ-AC GAS HTG COIL,Inlet,1
 Non-Parent Node Connection,NODE 27,COIL:HEATING:FUEL,ZONE RETAIL POINT_OF_SALE A  - STORY GROUND PSZ-AC GAS HTG COIL,Outlet,1
 Non-Parent Node Connection,NODE 27,COIL:HEATING:FUEL,ZONE RETAIL POINT_OF_SALE A  - STORY GROUND PSZ-AC GAS HTG COIL,Sensor,1
 Non-Parent Node Connection,NODE 196,COIL:HEATING:FUEL,ZONE RETAIL POINT_OF_SALE B  - STORY GROUND PSZ-AC GAS HTG COIL,Inlet,1
 Non-Parent Node Connection,NODE 195,COIL:HEATING:FUEL,ZONE RETAIL POINT_OF_SALE B  - STORY GROUND PSZ-AC GAS HTG COIL,Outlet,1
 Non-Parent Node Connection,NODE 195,COIL:HEATING:FUEL,ZONE RETAIL POINT_OF_SALE B  - STORY GROUND PSZ-AC GAS HTG COIL,Sensor,1
 Non-Parent Node Connection,NODE 112,COIL:HEATING:FUEL,ZONE RETAIL POINT_OF_SALE C  - STORY GROUND PSZ-AC GAS HTG COIL,Inlet,1
 Non-Parent Node Connection,NODE 111,COIL:HEATING:FUEL,ZONE RETAIL POINT_OF_SALE C  - STORY GROUND PSZ-AC GAS HTG COIL,Outlet,1
 Non-Parent Node Connection,NODE 111,COIL:HEATING:FUEL,ZONE RETAIL POINT_OF_SALE C  - STORY GROUND PSZ-AC GAS HTG COIL,Sensor,1
 Non-Parent Node Connection,NODE 148,COIL:HEATING:FUEL,ZONE RETAIL RETAIL A  - STORY GROUND PSZ-AC GAS HTG COIL,Inlet,1
 Non-Parent Node Connection,NODE 147,COIL:HEATING:FUEL,ZONE RETAIL RETAIL A  - STORY GROUND PSZ-AC GAS HTG COIL,Outlet,1
 Non-Parent Node Connection,NODE 147,COIL:HEATING:FUEL,ZONE RETAIL RETAIL A  - STORY GROUND PSZ-AC GAS HTG COIL,Sensor,1
 Non-Parent Node Connection,NODE 88,COIL:HEATING:FUEL,ZONE RETAIL RETAIL A END_A - STORY GROUND PSZ-AC GAS HTG COIL,Inlet,1
 Non-Parent Node Connection,NODE 87,COIL:HEATING:FUEL,ZONE RETAIL RETAIL A END_A - STORY GROUND PSZ-AC GAS HTG COIL,Outlet,1
 Non-Parent Node Connection,NODE 87,COIL:HEATING:FUEL,ZONE RETAIL RETAIL A END_A - STORY GROUND PSZ-AC GAS HTG COIL,Sensor,1
 Non-Parent Node Connection,NODE 124,COIL:HEATING:FUEL,ZONE RETAIL RETAIL B  - STORY GROUND PSZ-AC GAS HTG COIL,Inlet,1
 Non-Parent Node Connection,NODE 123,COIL:HEATING:FUEL,ZONE RETAIL RETAIL B  - STORY GROUND PSZ-AC GAS HTG COIL,Outlet,1
 Non-Parent Node Connection,NODE 123,COIL:HEATING:FUEL,ZONE RETAIL RETAIL B  - STORY GROUND PSZ-AC GAS HTG COIL,Sensor,1
 Non-Parent Node Connection,NODE 160,COIL:HEATING:FUEL,ZONE RETAIL RETAIL B END_A - STORY GROUND PSZ-AC GAS HTG COIL,Inlet,1
 Non-Parent Node Connection,NODE 159,COIL:HEATING:FUEL,ZONE RETAIL RETAIL B END_A - STORY GROUND PSZ-AC GAS HTG COIL,Outlet,1
 Non-Parent Node Connection,NODE 159,COIL:HEATING:FUEL,ZONE RETAIL RETAIL B END_A - STORY GROUND PSZ-AC GAS HTG COIL,Sensor,1
 Non-Parent Node Connection,NODE 208,COIL:HEATING:FUEL,ZONE RETAIL RETAIL C  - STORY GROUND PSZ-AC GAS HTG COIL,Inlet,1
 Non-Parent Node Connection,NODE 207,COIL:HEATING:FUEL,ZONE RETAIL RETAIL C  - STORY GROUND PSZ-AC GAS HTG COIL,Outlet,1
 Non-Parent Node Connection,NODE 207,COIL:HEATING:FUEL,ZONE RETAIL RETAIL C  - STORY GROUND PSZ-AC GAS HTG COIL,Sensor,1
 Non-Parent Node Connection,NODE 52,COIL:HEATING:FUEL,ZONE RETAIL RETAIL C END_A - STORY GROUND PSZ-AC GAS HTG COIL,Inlet,1
 Non-Parent Node Connection,NODE 51,COIL:HEATING:FUEL,ZONE RETAIL RETAIL C END_A - STORY GROUND PSZ-AC GAS HTG COIL,Outlet,1
 Non-Parent Node Connection,NODE 51,COIL:HEATING:FUEL,ZONE RETAIL RETAIL C END_A - STORY GROUND PSZ-AC GAS HTG COIL,Sensor,1
