Program Version,EnergyPlus, Version 8.7.0-78a111df4a, YMD=2018.03.01 18:55
! <Version>, Version ID
 Version, 8.7
! <Timesteps per Hour>, #TimeSteps, Minutes per TimeStep {minutes}
 Timesteps per Hour,  4, 15
! <System Convergence Limits>, Minimum System TimeStep {minutes}, Max HVAC Iterations, Minimum Plant Iterations, Maximum Plant Iterations
 System Convergence Limits, 1, 20, 2, 8
! <Simulation Control>, Do Zone Sizing, Do System Sizing, Do Plant Sizing, Do Design Days, Do Weather Simulation, Do HVAC Sizing Simulation
 Simulation Control, Yes, Yes, Yes, No, Yes, No
! <Output Reporting Tolerances>, Tolerance for Time Heating Setpoint Not Met, Tolerance for Zone Cooling Setpoint Not Met Time
 Output Reporting Tolerances, 0.200, 0.200, 
! <Site:GroundTemperature:BuildingSurface>,Jan{C},Feb{C},Mar{C},Apr{C},May{C},Jun{C},Jul{C},Aug{C},Sep{C},Oct{C},Nov{C},Dec{C}
 Site:GroundTemperature:BuildingSurface,  18.00,  18.00,  18.00,  18.00,  18.00,  18.00,  18.00,  18.00,  18.00,  18.00,  18.00,  18.00
! <Site:GroundTemperature:FCfactorMethod>,Jan{C},Feb{C},Mar{C},Apr{C},May{C},Jun{C},Jul{C},Aug{C},Sep{C},Oct{C},Nov{C},Dec{C}
 Site:GroundTemperature:FCfactorMethod,  10.94,  10.63,  11.18,  12.06,  14.33,  16.09,  17.28,  17.64,  17.02,  15.66,  13.83,  12.14
! <Site:GroundTemperature:Shallow>,Jan{C},Feb{C},Mar{C},Apr{C},May{C},Jun{C},Jul{C},Aug{C},Sep{C},Oct{C},Nov{C},Dec{C}
 Site:GroundTemperature:Shallow,  13.00,  13.00,  13.00,  13.00,  13.00,  13.00,  13.00,  13.00,  13.00,  13.00,  13.00,  13.00
! <Site:GroundTemperature:Deep>,Jan{C},Feb{C},Mar{C},Apr{C},May{C},Jun{C},Jul{C},Aug{C},Sep{C},Oct{C},Nov{C},Dec{C}
 Site:GroundTemperature:Deep,  16.00,  16.00,  16.00,  16.00,  16.00,  16.00,  16.00,  16.00,  16.00,  16.00,  16.00,  16.00
! <Site:GroundReflectance>,Jan{dimensionless},Feb{dimensionless},Mar{dimensionless},Apr{dimensionless},May{dimensionless},Jun{dimensionless},Jul{dimensionless},Aug{dimensionless},Sep{dimensionless},Oct{dimensionless},Nov{dimensionless},Dec{dimensionless}
 Site:GroundReflectance,  0.20,  0.20,  0.20,  0.20,  0.20,  0.20,  0.20,  0.20,  0.20,  0.20,  0.20,  0.20
! <Site:GroundReflectance:SnowModifier>, Normal, Daylighting {dimensionless}
 Site:GroundReflectance:SnowModifier,   1.000,   1.000
! <Site:GroundReflectance:Snow>,Jan{dimensionless},Feb{dimensionless},Mar{dimensionless},Apr{dimensionless},May{dimensionless},Jun{dimensionless},Jul{dimensionless},Aug{dimensionless},Sep{dimensionless},Oct{dimensionless},Nov{dimensionless},Dec{dimensionless}
 Site:GroundReflectance:Snow,  0.20,  0.20,  0.20,  0.20,  0.20,  0.20,  0.20,  0.20,  0.20,  0.20,  0.20,  0.20
! <Site:GroundReflectance:Snow:Daylighting>,Jan{dimensionless},Feb{dimensionless},Mar{dimensionless},Apr{dimensionless},May{dimensionless},Jun{dimensionless},Jul{dimensionless},Aug{dimensionless},Sep{dimensionless},Oct{dimensionless},Nov{dimensionless},Dec{dimensionless}
 Site:GroundReflectance:Snow:Daylighting,  0.20,  0.20,  0.20,  0.20,  0.20,  0.20,  0.20,  0.20,  0.20,  0.20,  0.20,  0.20
! <Environment:Weather Station>,Wind Sensor Height Above Ground {m},Wind Speed Profile Exponent {},Wind Speed Profile Boundary Layer Thickness {m},Air Temperature Sensor Height Above Ground {m},Wind Speed Modifier Coefficient-Internal,Temperature Modifier Coefficient-Internal
Environment:Weather Station,10.000,0.140,270.000,1.500,1.586,9.750E-003
! <Site:Location>, Location Name, Latitude {N+/S- Deg}, Longitude {E+/W- Deg},  Time Zone Number {GMT+/-}, Elevation {m},  Standard Pressure at Elevation {Pa}, Standard RhoAir at Elevation
Site:Location,Climate Zone 3 CA USA CTZRV2 WMO#=724930,37.70,-122.20,-8.00,2.00,101301,1.2040
! <Building Information>, Building Name,North Axis {deg},Terrain,  Loads Convergence Tolerance Value,Temperature Convergence Tolerance Value,  Solar Distribution,Maximum Number of Warmup Days,Minimum Number of Warmup Days
 Building Information,CEC Pre-1978|RetailStandalone,0.000,Suburbs,4.00000E-002,0.40000,FullExterior,25,6
! <Inside Convection Algorithm>, Algorithm {Simple | TARP | CeilingDiffuser | AdaptiveConvectionAlgorithm}
Inside Convection Algorithm,TARP
! <Outside Convection Algorithm>, Algorithm {SimpleCombined | TARP | MoWitt | DOE-2 | AdaptiveConvectionAlgorithm}
Outside Convection Algorithm,DOE-2
! <Sky Radiance Distribution>, Value {Anisotropic}
Sky Radiance Distribution,Anisotropic
! <Zone Air Solution Algorithm>, Value {ThirdOrderBackwardDifference | AnalyticalSolution | EulerMethod}
 Zone Air Solution Algorithm, ThirdOrderBackwardDifference
! <Zone Air Carbon Dioxide Balance Simulation>, Simulation {Yes/No}, Carbon Dioxide Concentration
 Zone Air Carbon Dioxide Balance Simulation, No,N/A
! <Zone Air Generic Contaminant Balance Simulation>, Simulation {Yes/No}, Generic Contaminant Concentration
 Zone Air Generic Contaminant Balance Simulation, No,N/A
! <Zone Air Mass Flow Balance Simulation>, Enforce Mass Balance, Adjust Zone Mixing, Adjust Zone Infiltration {AddInfiltration | AdjustInfiltration | None}, Infiltration Zones {MixingSourceZonesOnly | AllZones}
 Zone Air Mass Flow Balance Simulation, No,N/A,N/A,N/A
! <Environment:Site Atmospheric Variation>,Wind Speed Profile Exponent {},Wind Speed Profile Boundary Layer Thickness {m},Air Temperature Gradient Coefficient {K/m}
Environment:Site Atmospheric Variation,0.220,370.000,6.500000E-003
! <Surface Geometry>,Starting Corner,Vertex Input Direction,Coordinate System,Daylight Reference Point Coordinate System,Rectangular (Simple) Surface Coordinate System
 Surface Geometry,UpperLeftCorner,Counterclockwise,RelativeCoordinateSystem,RelativeCoordinateSystem,RelativeToZoneOrigin
! <Surface Heat Transfer Algorithm>, Value {CTF - ConductionTransferFunction | EMPD - MoisturePenetrationDepthConductionTransferFunction | CondFD - ConductionFiniteDifference | HAMT - CombinedHeatAndMoistureFiniteElement} - Description,Inside Surface Max Temperature Limit{C}, Surface Convection Coefficient Lower Limit {W/m2-K}, Surface Convection Coefficient Upper Limit {W/m2-K}
Surface Heat Transfer Algorithm, CTF - ConductionTransferFunction,200,0.10,1000.0
! <Shading Summary>, Number of Fixed Detached Shades, Number of Building Detached Shades, Number of Attached Shades
 Shading Summary,0,0,0
! <Zone Summary>, Number of Zones, Number of Zone Surfaces, Number of SubSurfaces
 Zone Summary,18,126,18
! <Zone Information>,Zone Name,North Axis {deg},Origin X-Coordinate {m},Origin Y-Coordinate {m},Origin Z-Coordinate {m},Centroid X-Coordinate {m},Centroid Y-Coordinate {m},Centroid Z-Coordinate {m},Type,Zone Multiplier,Zone List Multiplier,Minimum X {m},Maximum X {m},Minimum Y {m},Maximum Y {m},Minimum Z {m},Maximum Z {m},Ceiling Height {m},Volume {m3},Zone Inside Convection Algorithm {Simple-Detailed-CeilingDiffuser-TrombeWall},Zone Outside Convection Algorithm {Simple-Detailed-Tarp-MoWitt-DOE-2-BLAST}, Floor Area {m2},Exterior Gross Wall Area {m2},Exterior Net Wall Area {m2},Exterior Window Area {m2}, Number of Surfaces, Number of SubSurfaces, Number of Shading SubSurfaces,  Part of Total Building Area
 Zone Information, ZONE RETAIL BACK_SPACE A  - STORY GROUND,0.0,18.26,-21.00,0.00,20.49,-18.71,3.05,1,1,1,18.26,22.73,-21.00,-16.43,0.00,6.10,6.10,124.57,TARP,DOE-2,20.44,27.25,25.34,1.91,6,1,0,Yes
 Zone Information, ZONE RETAIL BACK_SPACE A END_B - STORY GROUND,0.0,22.73,-21.00,0.00,25.01,-18.71,3.05,1,1,1,22.73,27.30,-21.00,-16.43,0.00,6.10,6.10,127.43,TARP,DOE-2,20.90,55.74,51.84,3.90,6,2,0,Yes
 Zone Information, ZONE RETAIL BACK_SPACE B  - STORY GROUND,0.0,18.26,-16.43,0.00,20.49,-1.37E-014,3.05,1,1,1,18.26,22.73,-16.43,16.43,0.00,6.10,6.10,895.20,TARP,DOE-2,146.85,0.00,0.00,0.00,6,0,0,Yes
 Zone Information, ZONE RETAIL BACK_SPACE B END_B - STORY GROUND,0.0,22.73,-16.43,0.00,25.01,-1.47E-014,3.05,1,1,1,22.73,27.30,-16.43,16.43,0.00,6.10,6.10,915.71,TARP,DOE-2,150.21,200.29,186.27,14.02,6,1,0,Yes
 Zone Information, ZONE RETAIL BACK_SPACE C  - STORY GROUND,0.0,18.26,16.43,0.00,20.49,18.71,3.05,1,1,1,18.26,22.73,16.43,21.00,0.00,6.10,6.10,124.57,TARP,DOE-2,20.44,27.25,25.34,1.91,6,1,0,Yes
 Zone Information, ZONE RETAIL BACK_SPACE C END_B - STORY GROUND,0.0,22.73,16.43,0.00,25.01,18.71,3.05,1,1,1,22.73,27.30,16.43,21.00,0.00,6.10,6.10,127.43,TARP,DOE-2,20.90,55.74,51.84,3.90,6,2,0,Yes
 Zone Information, ZONE RETAIL ENTRY A  - STORY GROUND,0.0,14.39,-21.00,0.00,14.53,-18.71,3.05,1,1,1,14.39,14.67,-21.00,-16.43,0.00,6.10,6.10,7.91,TARP,DOE-2,1.30,1.73,1.61,0.12,6,1,0,Yes
 Zone Information, ZONE RETAIL ENTRY B  - STORY GROUND,0.0,14.39,-16.43,0.00,14.53,-1.42E-014,3.05,1,1,1,14.39,14.67,-16.43,16.43,0.00,6.10,6.10,56.86,TARP,DOE-2,9.33,0.00,0.00,0.00,6,0,0,Yes
 Zone Information, ZONE RETAIL ENTRY C  - STORY GROUND,0.0,14.39,16.43,0.00,14.53,18.71,3.05,1,1,1,14.39,14.67,16.43,21.00,0.00,6.10,6.10,7.91,TARP,DOE-2,1.30,1.73,1.61,0.12,6,1,0,Yes
 Zone Information, ZONE RETAIL POINT_OF_SALE A  - STORY GROUND,0.0,14.67,-21.00,0.00,16.46,-18.71,3.05,1,1,1,14.67,18.26,-21.00,-16.43,0.00,6.10,6.10,99.98,TARP,DOE-2,16.40,21.87,20.34,1.53,6,1,0,Yes
 Zone Information, ZONE RETAIL POINT_OF_SALE B  - STORY GROUND,0.0,14.67,-16.43,0.00,16.46,-1.51E-014,3.05,1,1,1,14.67,18.26,-16.43,16.43,0.00,6.10,6.10,718.46,TARP,DOE-2,117.86,0.00,0.00,0.00,6,0,0,Yes
 Zone Information, ZONE RETAIL POINT_OF_SALE C  - STORY GROUND,0.0,14.67,16.43,0.00,16.46,18.71,3.05,1,1,1,14.67,18.26,16.43,21.00,0.00,6.10,6.10,99.98,TARP,DOE-2,16.40,21.87,20.34,1.53,6,1,0,Yes
 Zone Information, ZONE RETAIL RETAIL A  - STORY GROUND,0.0,-22.73,-21.00,0.00,-4.17,-18.71,3.05,1,1,1,-22.73,14.39,-21.00,-16.43,0.00,6.10,6.10,1034.41,TARP,DOE-2,169.69,226.25,210.41,15.84,6,1,0,Yes
 Zone Information, ZONE RETAIL RETAIL A END_A - STORY GROUND,0.0,-27.30,-21.00,0.00,-25.01,-18.71,3.05,1,1,1,-27.30,-22.73,-21.00,-16.43,0.00,6.10,6.10,127.43,TARP,DOE-2,20.90,55.74,51.84,3.90,6,2,0,Yes
 Zone Information, ZONE RETAIL RETAIL B  - STORY GROUND,0.0,-22.73,-16.43,0.00,-4.17,-1.44E-014,3.05,1,1,1,-22.73,14.39,-16.43,16.43,0.00,6.10,6.10,7433.50,TARP,DOE-2,1219.41,0.00,0.00,0.00,6,0,0,Yes
 Zone Information, ZONE RETAIL RETAIL B END_A - STORY GROUND,0.0,-27.30,-16.43,0.00,-25.01,-1.47E-014,3.05,1,1,1,-27.30,-22.73,-16.43,16.43,0.00,6.10,6.10,915.71,TARP,DOE-2,150.21,200.29,186.27,14.02,6,1,0,Yes
 Zone Information, ZONE RETAIL RETAIL C  - STORY GROUND,0.0,-22.73,16.43,0.00,-4.17,18.71,3.05,1,1,1,-22.73,14.39,16.43,21.00,0.00,6.10,6.10,1034.41,TARP,DOE-2,169.69,226.25,210.41,15.84,6,1,0,Yes
 Zone Information, ZONE RETAIL RETAIL C END_A - STORY GROUND,0.0,-27.30,16.43,0.00,-25.01,18.71,3.05,1,1,1,-27.30,-22.73,16.43,21.00,0.00,6.10,6.10,127.43,TARP,DOE-2,20.90,55.74,51.84,3.90,6,2,0,Yes
! <Zone Internal Gains Nominal>,Zone Name, Floor Area {m2},# Occupants,Area per Occupant {m2/person},Occupant per Area {person/m2},Interior Lighting {W/m2},Electric Load {W/m2},Gas Load {W/m2},Other Load {W/m2},Hot Water Eq {W/m2},Steam Equipment {W/m2},Sum Loads per Area {W/m2},Outdoor Controlled Baseboard Heat
 Zone Internal Gains Nominal, ZONE RETAIL BACK_SPACE A  - STORY GROUND,20.44,0.7,30.968,3.229E-002,9.472,2.476,0.000,0.000,0.000,0.000,11.948,No
 Zone Internal Gains Nominal, ZONE RETAIL BACK_SPACE A END_B - STORY GROUND,20.90,0.7,30.968,3.229E-002,9.472,2.476,0.000,0.000,0.000,0.000,11.948,No
 Zone Internal Gains Nominal, ZONE RETAIL BACK_SPACE B  - STORY GROUND,146.85,4.7,30.968,3.229E-002,9.472,2.476,0.000,0.000,0.000,0.000,11.948,No
 Zone Internal Gains Nominal, ZONE RETAIL BACK_SPACE B END_B - STORY GROUND,150.21,4.9,30.968,3.229E-002,9.472,2.476,0.000,0.000,0.000,0.000,11.948,No
 Zone Internal Gains Nominal, ZONE RETAIL BACK_SPACE C  - STORY GROUND,20.44,0.7,30.968,3.229E-002,9.472,2.476,0.000,0.000,0.000,0.000,11.948,No
 Zone Internal Gains Nominal, ZONE RETAIL BACK_SPACE C END_B - STORY GROUND,20.90,0.7,30.968,3.229E-002,9.472,2.476,0.000,0.000,0.000,0.000,11.948,No
 Zone Internal Gains Nominal, ZONE RETAIL ENTRY A  - STORY GROUND,1.30,0.5,2.814,0.355,36.167,12.378,0.000,0.000,0.000,0.000,48.545,No
 Zone Internal Gains Nominal, ZONE RETAIL ENTRY B  - STORY GROUND,9.33,3.3,2.814,0.355,36.167,12.378,0.000,0.000,0.000,0.000,48.545,No
 Zone Internal Gains Nominal, ZONE RETAIL ENTRY C  - STORY GROUND,1.30,0.5,2.814,0.355,36.167,12.378,0.000,0.000,0.000,0.000,48.545,No
 Zone Internal Gains Nominal, ZONE RETAIL POINT_OF_SALE A  - STORY GROUND,16.40,5.8,2.814,0.355,36.167,12.378,0.000,0.000,0.000,0.000,48.545,No
 Zone Internal Gains Nominal, ZONE RETAIL POINT_OF_SALE B  - STORY GROUND,117.86,41.9,2.814,0.355,36.167,12.378,0.000,0.000,0.000,0.000,48.545,No
 Zone Internal Gains Nominal, ZONE RETAIL POINT_OF_SALE C  - STORY GROUND,16.40,5.8,2.814,0.355,36.167,12.378,0.000,0.000,0.000,0.000,48.545,No
 Zone Internal Gains Nominal, ZONE RETAIL RETAIL A  - STORY GROUND,169.69,60.3,2.814,0.355,36.167,12.378,0.000,0.000,0.000,0.000,48.545,No
 Zone Internal Gains Nominal, ZONE RETAIL RETAIL A END_A - STORY GROUND,20.90,7.4,2.814,0.355,36.167,12.378,0.000,0.000,0.000,0.000,48.545,No
 Zone Internal Gains Nominal, ZONE RETAIL RETAIL B  - STORY GROUND,1219.41,433.3,2.814,0.355,36.167,12.378,0.000,0.000,0.000,0.000,48.545,No
 Zone Internal Gains Nominal, ZONE RETAIL RETAIL B END_A - STORY GROUND,150.21,53.4,2.814,0.355,36.167,12.378,0.000,0.000,0.000,0.000,48.545,No
 Zone Internal Gains Nominal, ZONE RETAIL RETAIL C  - STORY GROUND,169.69,60.3,2.814,0.355,36.167,12.378,0.000,0.000,0.000,0.000,48.545,No
 Zone Internal Gains Nominal, ZONE RETAIL RETAIL C END_A - STORY GROUND,20.90,7.4,2.814,0.355,36.167,12.378,0.000,0.000,0.000,0.000,48.545,No
! <People Internal Gains Nominal>,Name,Schedule Name,Zone Name,Zone Floor Area {m2},# Zone Occupants,Number of People {},People/Floor Area {person/m2},Floor Area per person {m2/person},Fraction Radiant,Fraction Convected,Sensible Fraction Calculation,Activity level,ASHRAE 55 Warnings,Carbon Dioxide Generation Rate,Nominal Minimum Number of People,Nominal Maximum Number of People
 People Internal Gains Nominal, ZONE RETAIL BACK_SPACE A  - STORY GROUND RETAIL BACK_SPACE PEOPLE,RETAILOCCUPANCY,ZONE RETAIL BACK_SPACE A  - STORY GROUND,20.44,0.7,0.7,3.229E-002,30.968,0.300,0.700,AutoCalculate,RETAILPEOPLEACTIVITYLEVEL,No,3.8200E-008,0,1
 People Internal Gains Nominal, ZONE RETAIL BACK_SPACE A END_B - STORY GROUND RETAIL BACK_SPACE PEOPLE,RETAILOCCUPANCY,ZONE RETAIL BACK_SPACE A END_B - STORY GROUND,20.90,0.7,0.7,3.229E-002,30.968,0.300,0.700,AutoCalculate,RETAILPEOPLEACTIVITYLEVEL,No,3.8200E-008,0,1
 People Internal Gains Nominal, ZONE RETAIL BACK_SPACE B  - STORY GROUND RETAIL BACK_SPACE PEOPLE,RETAILOCCUPANCY,ZONE RETAIL BACK_SPACE B  - STORY GROUND,146.85,4.7,4.7,3.229E-002,30.968,0.300,0.700,AutoCalculate,RETAILPEOPLEACTIVITYLEVEL,No,3.8200E-008,0,5
 People Internal Gains Nominal, ZONE RETAIL BACK_SPACE B END_B - STORY GROUND RETAIL BACK_SPACE PEOPLE,RETAILOCCUPANCY,ZONE RETAIL BACK_SPACE B END_B - STORY GROUND,150.21,4.9,4.9,3.229E-002,30.968,0.300,0.700,AutoCalculate,RETAILPEOPLEACTIVITYLEVEL,No,3.8200E-008,0,5
 People Internal Gains Nominal, ZONE RETAIL BACK_SPACE C  - STORY GROUND RETAIL BACK_SPACE PEOPLE,RETAILOCCUPANCY,ZONE RETAIL BACK_SPACE C  - STORY GROUND,20.44,0.7,0.7,3.229E-002,30.968,0.300,0.700,AutoCalculate,RETAILPEOPLEACTIVITYLEVEL,No,3.8200E-008,0,1
 People Internal Gains Nominal, ZONE RETAIL BACK_SPACE C END_B - STORY GROUND RETAIL BACK_SPACE PEOPLE,RETAILOCCUPANCY,ZONE RETAIL BACK_SPACE C END_B - STORY GROUND,20.90,0.7,0.7,3.229E-002,30.968,0.300,0.700,AutoCalculate,RETAILPEOPLEACTIVITYLEVEL,No,3.8200E-008,0,1
 People Internal Gains Nominal, ZONE RETAIL ENTRY A  - STORY GROUND RETAIL ENTRY PEOPLE,RETAILOCCUPANCY,ZONE RETAIL ENTRY A  - STORY GROUND,1.30,0.5,0.5,0.355,2.814,0.300,0.700,AutoCalculate,RETAILPEOPLEACTIVITYLEVEL,No,3.8200E-008,0,0
 People Internal Gains Nominal, ZONE RETAIL ENTRY B  - STORY GROUND RETAIL ENTRY PEOPLE,RETAILOCCUPANCY,ZONE RETAIL ENTRY B  - STORY GROUND,9.33,3.3,3.3,0.355,2.814,0.300,0.700,AutoCalculate,RETAILPEOPLEACTIVITYLEVEL,No,3.8200E-008,0,3
 People Internal Gains Nominal, ZONE RETAIL ENTRY C  - STORY GROUND RETAIL ENTRY PEOPLE,RETAILOCCUPANCY,ZONE RETAIL ENTRY C  - STORY GROUND,1.30,0.5,0.5,0.355,2.814,0.300,0.700,AutoCalculate,RETAILPEOPLEACTIVITYLEVEL,No,3.8200E-008,0,0
 People Internal Gains Nominal, ZONE RETAIL POINT_OF_SALE A  - STORY GROUND RETAIL POINT_OF_SALE PEOPLE,RETAILOCCUPANCY,ZONE RETAIL POINT_OF_SALE A  - STORY GROUND,16.40,5.8,5.8,0.355,2.814,0.300,0.700,AutoCalculate,RETAILPEOPLEACTIVITYLEVEL,No,3.8200E-008,0,6
 People Internal Gains Nominal, ZONE RETAIL POINT_OF_SALE B  - STORY GROUND RETAIL POINT_OF_SALE PEOPLE,RETAILOCCUPANCY,ZONE RETAIL POINT_OF_SALE B  - STORY GROUND,117.86,41.9,41.9,0.355,2.814,0.300,0.700,AutoCalculate,RETAILPEOPLEACTIVITYLEVEL,No,3.8200E-008,0,42
 People Internal Gains Nominal, ZONE RETAIL POINT_OF_SALE C  - STORY GROUND RETAIL POINT_OF_SALE PEOPLE,RETAILOCCUPANCY,ZONE RETAIL POINT_OF_SALE C  - STORY GROUND,16.40,5.8,5.8,0.355,2.814,0.300,0.700,AutoCalculate,RETAILPEOPLEACTIVITYLEVEL,No,3.8200E-008,0,6
 People Internal Gains Nominal, ZONE RETAIL RETAIL A  - STORY GROUND RETAIL RETAIL PEOPLE,RETAILOCCUPANCY,ZONE RETAIL RETAIL A  - STORY GROUND,169.69,60.3,60.3,0.355,2.814,0.300,0.700,AutoCalculate,RETAILPEOPLEACTIVITYLEVEL,No,3.8200E-008,0,60
 People Internal Gains Nominal, ZONE RETAIL RETAIL A END_A - STORY GROUND RETAIL RETAIL PEOPLE,RETAILOCCUPANCY,ZONE RETAIL RETAIL A END_A - STORY GROUND,20.90,7.4,7.4,0.355,2.814,0.300,0.700,AutoCalculate,RETAILPEOPLEACTIVITYLEVEL,No,3.8200E-008,0,7
 People Internal Gains Nominal, ZONE RETAIL RETAIL B  - STORY GROUND RETAIL RETAIL PEOPLE,RETAILOCCUPANCY,ZONE RETAIL RETAIL B  - STORY GROUND,1219.41,433.3,433.3,0.355,2.814,0.300,0.700,AutoCalculate,RETAILPEOPLEACTIVITYLEVEL,No,3.8200E-008,0,433
 People Internal Gains Nominal, ZONE RETAIL RETAIL B END_A - STORY GROUND RETAIL RETAIL PEOPLE,RETAILOCCUPANCY,ZONE RETAIL RETAIL B END_A - STORY GROUND,150.21,53.4,53.4,0.355,2.814,0.300,0.700,AutoCalculate,RETAILPEOPLEACTIVITYLEVEL,No,3.8200E-008,0,53
 People Internal Gains Nominal, ZONE RETAIL RETAIL C  - STORY GROUND RETAIL RETAIL PEOPLE,RETAILOCCUPANCY,ZONE RETAIL RETAIL C  - STORY GROUND,169.69,60.3,60.3,0.355,2.814,0.300,0.700,AutoCalculate,RETAILPEOPLEACTIVITYLEVEL,No,3.8200E-008,0,60
 People Internal Gains Nominal, ZONE RETAIL RETAIL C END_A - STORY GROUND RETAIL RETAIL PEOPLE,RETAILOCCUPANCY,ZONE RETAIL RETAIL C END_A - STORY GROUND,20.90,7.4,7.4,0.355,2.814,0.300,0.700,AutoCalculate,RETAILPEOPLEACTIVITYLEVEL,No,3.8200E-008,0,7
! <Lights Internal Gains Nominal>,Name,Schedule Name,Zone Name,Zone Floor Area {m2},# Zone Occupants,Lighting Level {W},Lights/Floor Area {W/m2},Lights per person {W/person},Fraction Return Air,Fraction Radiant,Fraction Short Wave,Fraction Convected,Fraction Replaceable,End-Use Category,Nominal Minimum Lighting Level {W},Nominal Maximum Lighting Level {W}
 Lights Internal Gains Nominal, ZONE RETAIL BACK_SPACE A  - STORY GROUND RETAIL BACK_SPACE LIGHTS,RETAILLIGHTS,ZONE RETAIL BACK_SPACE A  - STORY GROUND,20.44,0.7,193.566,9.472,293.333,0.000,0.000,0.000,1.000,1.000,General,0.000,193.566
 Lights Internal Gains Nominal, ZONE RETAIL BACK_SPACE A END_B - STORY GROUND RETAIL BACK_SPACE LIGHTS,RETAILLIGHTS,ZONE RETAIL BACK_SPACE A END_B - STORY GROUND,20.90,0.7,198.000,9.472,293.333,0.000,0.000,0.000,1.000,1.000,General,0.000,198.000
 Lights Internal Gains Nominal, ZONE RETAIL BACK_SPACE B  - STORY GROUND RETAIL BACK_SPACE LIGHTS,RETAILLIGHTS,ZONE RETAIL BACK_SPACE B  - STORY GROUND,146.85,4.7,1391.004,9.472,293.333,0.000,0.000,0.000,1.000,1.000,General,0.000,1391.004
 Lights Internal Gains Nominal, ZONE RETAIL BACK_SPACE B END_B - STORY GROUND RETAIL BACK_SPACE LIGHTS,RETAILLIGHTS,ZONE RETAIL BACK_SPACE B END_B - STORY GROUND,150.21,4.9,1422.868,9.472,293.333,0.000,0.000,0.000,1.000,1.000,General,0.000,1422.868
 Lights Internal Gains Nominal, ZONE RETAIL BACK_SPACE C  - STORY GROUND RETAIL BACK_SPACE LIGHTS,RETAILLIGHTS,ZONE RETAIL BACK_SPACE C  - STORY GROUND,20.44,0.7,193.566,9.472,293.333,0.000,0.000,0.000,1.000,1.000,General,0.000,193.566
 Lights Internal Gains Nominal, ZONE RETAIL BACK_SPACE C END_B - STORY GROUND RETAIL BACK_SPACE LIGHTS,RETAILLIGHTS,ZONE RETAIL BACK_SPACE C END_B - STORY GROUND,20.90,0.7,198.000,9.472,293.333,0.000,0.000,0.000,1.000,1.000,General,0.000,198.000
 Lights Internal Gains Nominal, ZONE RETAIL ENTRY A  - STORY GROUND RETAIL ENTRY LIGHTS,RETAILLIGHTS,ZONE RETAIL ENTRY A  - STORY GROUND,1.30,0.5,46.947,36.167,101.787,0.000,0.000,0.000,1.000,1.000,General,0.000,46.947
 Lights Internal Gains Nominal, ZONE RETAIL ENTRY B  - STORY GROUND RETAIL ENTRY LIGHTS,RETAILLIGHTS,ZONE RETAIL ENTRY B  - STORY GROUND,9.33,3.3,337.368,36.167,101.787,0.000,0.000,0.000,1.000,1.000,General,0.000,337.368
 Lights Internal Gains Nominal, ZONE RETAIL ENTRY C  - STORY GROUND RETAIL ENTRY LIGHTS,RETAILLIGHTS,ZONE RETAIL ENTRY C  - STORY GROUND,1.30,0.5,46.947,36.167,101.787,0.000,0.000,0.000,1.000,1.000,General,0.000,46.947
 Lights Internal Gains Nominal, ZONE RETAIL POINT_OF_SALE A  - STORY GROUND RETAIL POINT_OF_SALE LIGHTS,RETAILLIGHTS,ZONE RETAIL POINT_OF_SALE A  - STORY GROUND,16.40,5.8,593.153,36.167,101.787,0.000,0.000,0.000,1.000,1.000,General,0.000,593.153
 Lights Internal Gains Nominal, ZONE RETAIL POINT_OF_SALE B  - STORY GROUND RETAIL POINT_OF_SALE LIGHTS,RETAILLIGHTS,ZONE RETAIL POINT_OF_SALE B  - STORY GROUND,117.86,41.9,4262.516,36.167,101.787,0.000,0.000,0.000,1.000,1.000,General,0.000,4262.516
 Lights Internal Gains Nominal, ZONE RETAIL POINT_OF_SALE C  - STORY GROUND RETAIL POINT_OF_SALE LIGHTS,RETAILLIGHTS,ZONE RETAIL POINT_OF_SALE C  - STORY GROUND,16.40,5.8,593.153,36.167,101.787,0.000,0.000,0.000,1.000,1.000,General,0.000,593.153
 Lights Internal Gains Nominal, ZONE RETAIL RETAIL A  - STORY GROUND RETAIL RETAIL LIGHTS,RETAILLIGHTS,ZONE RETAIL RETAIL A  - STORY GROUND,169.69,60.3,6137.031,36.167,101.787,0.000,0.000,0.000,1.000,1.000,General,0.000,6137.031
 Lights Internal Gains Nominal, ZONE RETAIL RETAIL A END_A - STORY GROUND RETAIL RETAIL LIGHTS,RETAILLIGHTS,ZONE RETAIL RETAIL A END_A - STORY GROUND,20.90,7.4,756.000,36.167,101.787,0.000,0.000,0.000,1.000,1.000,General,0.000,756.000
 Lights Internal Gains Nominal, ZONE RETAIL RETAIL B  - STORY GROUND RETAIL RETAIL LIGHTS,RETAILLIGHTS,ZONE RETAIL RETAIL B  - STORY GROUND,1219.41,433.3,44101.950,36.167,101.787,0.000,0.000,0.000,1.000,1.000,General,0.000,44101.950
 Lights Internal Gains Nominal, ZONE RETAIL RETAIL B END_A - STORY GROUND RETAIL RETAIL LIGHTS,RETAILLIGHTS,ZONE RETAIL RETAIL B END_A - STORY GROUND,150.21,53.4,5432.769,36.167,101.787,0.000,0.000,0.000,1.000,1.000,General,0.000,5432.769
 Lights Internal Gains Nominal, ZONE RETAIL RETAIL C  - STORY GROUND RETAIL RETAIL LIGHTS,RETAILLIGHTS,ZONE RETAIL RETAIL C  - STORY GROUND,169.69,60.3,6137.031,36.167,101.787,0.000,0.000,0.000,1.000,1.000,General,0.000,6137.031
 Lights Internal Gains Nominal, ZONE RETAIL RETAIL C END_A - STORY GROUND RETAIL RETAIL LIGHTS,RETAILLIGHTS,ZONE RETAIL RETAIL C END_A - STORY GROUND,20.90,7.4,756.000,36.167,101.787,0.000,0.000,0.000,1.000,1.000,General,0.000,756.000
! <ElectricEquipment Internal Gains Nominal>,Name,Schedule Name,Zone Name,Zone Floor Area {m2},# Zone Occupants,Equipment Level {W},Equipment/Floor Area {W/m2},Equipment per person {W/person},Fraction Latent,Fraction Radiant,Fraction Lost,Fraction Convected,End-Use SubCategory,Nominal Minimum Equipment Level {W},Nominal Maximum Equipment Level {W}
 ElectricEquipment Internal Gains Nominal, ZONE RETAIL BACK_SPACE A  - STORY GROUND RETAIL BACK_SPACE ELEC EQUIP,RETAILRECEPTACLE,ZONE RETAIL BACK_SPACE A  - STORY GROUND,20.44,0.7,50.591,2.476,76.667,0.000,0.200,0.000,0.800,General,0.000,50.591
 ElectricEquipment Internal Gains Nominal, ZONE RETAIL BACK_SPACE A END_B - STORY GROUND RETAIL BACK_SPACE ELEC EQUIP,RETAILRECEPTACLE,ZONE RETAIL BACK_SPACE A END_B - STORY GROUND,20.90,0.7,51.750,2.476,76.667,0.000,0.200,0.000,0.800,General,0.000,51.750
 ElectricEquipment Internal Gains Nominal, ZONE RETAIL BACK_SPACE B  - STORY GROUND RETAIL BACK_SPACE ELEC EQUIP,RETAILRECEPTACLE,ZONE RETAIL BACK_SPACE B  - STORY GROUND,146.85,4.7,363.558,2.476,76.667,0.000,0.200,0.000,0.800,General,0.000,363.558
 ElectricEquipment Internal Gains Nominal, ZONE RETAIL BACK_SPACE B END_B - STORY GROUND RETAIL BACK_SPACE ELEC EQUIP,RETAILRECEPTACLE,ZONE RETAIL BACK_SPACE B END_B - STORY GROUND,150.21,4.9,371.886,2.476,76.667,0.000,0.200,0.000,0.800,General,0.000,371.886
 ElectricEquipment Internal Gains Nominal, ZONE RETAIL BACK_SPACE C  - STORY GROUND RETAIL BACK_SPACE ELEC EQUIP,RETAILRECEPTACLE,ZONE RETAIL BACK_SPACE C  - STORY GROUND,20.44,0.7,50.591,2.476,76.667,0.000,0.200,0.000,0.800,General,0.000,50.591
 ElectricEquipment Internal Gains Nominal, ZONE RETAIL BACK_SPACE C END_B - STORY GROUND RETAIL BACK_SPACE ELEC EQUIP,RETAILRECEPTACLE,ZONE RETAIL BACK_SPACE C END_B - STORY GROUND,20.90,0.7,51.750,2.476,76.667,0.000,0.200,0.000,0.800,General,0.000,51.750
 ElectricEquipment Internal Gains Nominal, ZONE RETAIL ENTRY A  - STORY GROUND RETAIL ENTRY ELEC EQUIP,RETAILRECEPTACLE,ZONE RETAIL ENTRY A  - STORY GROUND,1.30,0.5,16.068,12.378,34.838,0.000,0.200,0.000,0.800,General,0.000,16.068
 ElectricEquipment Internal Gains Nominal, ZONE RETAIL ENTRY B  - STORY GROUND RETAIL ENTRY ELEC EQUIP,RETAILRECEPTACLE,ZONE RETAIL ENTRY B  - STORY GROUND,9.33,3.3,115.468,12.378,34.838,0.000,0.200,0.000,0.800,General,0.000,115.468
 ElectricEquipment Internal Gains Nominal, ZONE RETAIL ENTRY C  - STORY GROUND RETAIL ENTRY ELEC EQUIP,RETAILRECEPTACLE,ZONE RETAIL ENTRY C  - STORY GROUND,1.30,0.5,16.068,12.378,34.838,0.000,0.200,0.000,0.800,General,0.000,16.068
 ElectricEquipment Internal Gains Nominal, ZONE RETAIL POINT_OF_SALE A  - STORY GROUND RETAIL POINT_OF_SALE ELEC EQUIP,RETAILRECEPTACLE,ZONE RETAIL POINT_OF_SALE A  - STORY GROUND,16.40,5.8,203.014,12.378,34.838,0.000,0.200,0.000,0.800,General,0.000,203.014
 ElectricEquipment Internal Gains Nominal, ZONE RETAIL POINT_OF_SALE B  - STORY GROUND RETAIL POINT_OF_SALE ELEC EQUIP,RETAILRECEPTACLE,ZONE RETAIL POINT_OF_SALE B  - STORY GROUND,117.86,41.9,1458.897,12.378,34.838,0.000,0.200,0.000,0.800,General,0.000,1458.897
 ElectricEquipment Internal Gains Nominal, ZONE RETAIL POINT_OF_SALE C  - STORY GROUND RETAIL POINT_OF_SALE ELEC EQUIP,RETAILRECEPTACLE,ZONE RETAIL POINT_OF_SALE C  - STORY GROUND,16.40,5.8,203.014,12.378,34.838,0.000,0.200,0.000,0.800,General,0.000,203.014
 ElectricEquipment Internal Gains Nominal, ZONE RETAIL RETAIL A  - STORY GROUND RETAIL RETAIL ELEC EQUIP,RETAILRECEPTACLE,ZONE RETAIL RETAIL A  - STORY GROUND,169.69,60.3,2100.472,12.378,34.838,0.000,0.200,0.000,0.800,General,0.000,2100.472
 ElectricEquipment Internal Gains Nominal, ZONE RETAIL RETAIL A END_A - STORY GROUND RETAIL RETAIL ELEC EQUIP,RETAILRECEPTACLE,ZONE RETAIL RETAIL A END_A - STORY GROUND,20.90,7.4,258.750,12.378,34.838,0.000,0.200,0.000,0.800,General,0.000,258.750
 ElectricEquipment Internal Gains Nominal, ZONE RETAIL RETAIL B  - STORY GROUND RETAIL RETAIL ELEC EQUIP,RETAILRECEPTACLE,ZONE RETAIL RETAIL B  - STORY GROUND,1219.41,433.3,15094.417,12.378,34.838,0.000,0.200,0.000,0.800,General,0.000,15094.417
 ElectricEquipment Internal Gains Nominal, ZONE RETAIL RETAIL B END_A - STORY GROUND RETAIL RETAIL ELEC EQUIP,RETAILRECEPTACLE,ZONE RETAIL RETAIL B END_A - STORY GROUND,150.21,53.4,1859.430,12.378,34.838,0.000,0.200,0.000,0.800,General,0.000,1859.430
 ElectricEquipment Internal Gains Nominal, ZONE RETAIL RETAIL C  - STORY GROUND RETAIL RETAIL ELEC EQUIP,RETAILRECEPTACLE,ZONE RETAIL RETAIL C  - STORY GROUND,169.69,60.3,2100.472,12.378,34.838,0.000,0.200,0.000,0.800,General,0.000,2100.472
 ElectricEquipment Internal Gains Nominal, ZONE RETAIL RETAIL C END_A - STORY GROUND RETAIL RETAIL ELEC EQUIP,RETAILRECEPTACLE,ZONE RETAIL RETAIL C END_A - STORY GROUND,20.90,7.4,258.750,12.378,34.838,0.000,0.200,0.000,0.800,General,0.000,258.750
! <Shadowing/Sun Position Calculations Annual Simulations>, Calculation Method, Value {days}, Allowable Number Figures in Shadow Overlap {}, Polygon Clipping Algorithm, Sky Diffuse Modeling Algorithm
Shadowing/Sun Position Calculations Annual Simulations,AverageOverDaysInFrequency,20,15000,SutherlandHodgman,SimpleSkyDiffuseModeling
! <Zone/Window Adjacency Daylighting Counts>, Zone Name, Number of Exterior Windows, Number of Exterior Windows in Adjacent Zones
Zone/Window Adjacency Daylighting Counts, ZONE RETAIL RETAIL A  - STORY GROUND,1,0
Zone/Window Adjacency Daylighting Counts, ZONE RETAIL RETAIL A END_A - STORY GROUND,2,0
Zone/Window Adjacency Daylighting Counts, ZONE RETAIL RETAIL B END_A - STORY GROUND,1,0
Zone/Window Adjacency Daylighting Counts, ZONE RETAIL RETAIL C  - STORY GROUND,1,0
Zone/Window Adjacency Daylighting Counts, ZONE RETAIL RETAIL C END_A - STORY GROUND,2,0
! <Zone/Window Adjacency Daylighting Matrix>, Zone Name, Number of Adjacent Zones with Windows,Adjacent Zone Names - 1st 100 (max)
Zone/Window Adjacency Daylighting Matrix, ZONE RETAIL RETAIL A  - STORY GROUND,0
Zone/Window Adjacency Daylighting Matrix, ZONE RETAIL RETAIL A END_A - STORY GROUND,0
Zone/Window Adjacency Daylighting Matrix, ZONE RETAIL RETAIL B END_A - STORY GROUND,0
Zone/Window Adjacency Daylighting Matrix, ZONE RETAIL RETAIL C  - STORY GROUND,0
Zone/Window Adjacency Daylighting Matrix, ZONE RETAIL RETAIL C END_A - STORY GROUND,0
! <Water Heater Information>,Type,Name,Volume {m3},Maximum Capacity {W},Standard Rated Recovery Efficiency, Standard Rated Energy Factor
! <ZoneInfiltration Airflow Stats Nominal>,Name,Schedule Name,Zone Name, Zone Floor Area {m2}, # Zone Occupants,Design Volume Flow Rate {m3/s},Volume Flow Rate/Floor Area {m3/s/m2},Volume Flow Rate/Exterior Surface Area {m3/s/m2},ACH - Air Changes per Hour,Equation A - Constant Term Coefficient {},Equation B - Temperature Term Coefficient {1/C},Equation C - Velocity Term Coefficient {s/m}, Equation D - Velocity Squared Term Coefficient {s2/m2}
 ZoneInfiltration Airflow Stats Nominal, ZONE RETAIL BACK_SPACE A  - STORY GROUND RETAIL BACK_SPACE INFILTRATION,RETAILINFILTRATION,ZONE RETAIL BACK_SPACE A  - STORY GROUND,20.44,0.7,3.045E-002,1.490E-003,6.386E-004,0.880,1.000,0.000,0.000,0.000
 ZoneInfiltration Airflow Stats Nominal, ZONE RETAIL BACK_SPACE A END_B - STORY GROUND RETAIL BACK_SPACE INFILTRATION,RETAILINFILTRATION,ZONE RETAIL BACK_SPACE A END_B - STORY GROUND,20.90,0.7,6.230E-002,2.980E-003,8.128E-004,1.760,1.000,0.000,0.000,0.000
 ZoneInfiltration Airflow Stats Nominal, ZONE RETAIL BACK_SPACE B  - STORY GROUND RETAIL BACK_SPACE INFILTRATION,RETAILINFILTRATION,ZONE RETAIL BACK_SPACE B  - STORY GROUND,146.85,4.7,0.000,0.000,0.000,0.000,1.000,0.000,0.000,0.000
 ZoneInfiltration Airflow Stats Nominal, ZONE RETAIL BACK_SPACE B END_B - STORY GROUND RETAIL BACK_SPACE INFILTRATION,RETAILINFILTRATION,ZONE RETAIL BACK_SPACE B END_B - STORY GROUND,150.21,4.9,0.224,1.490E-003,6.386E-004,0.880,1.000,0.000,0.000,0.000
 ZoneInfiltration Airflow Stats Nominal, ZONE RETAIL BACK_SPACE C  - STORY GROUND RETAIL BACK_SPACE INFILTRATION,RETAILINFILTRATION,ZONE RETAIL BACK_SPACE C  - STORY GROUND,20.44,0.7,3.045E-002,1.490E-003,6.386E-004,0.880,1.000,0.000,0.000,0.000
 ZoneInfiltration Airflow Stats Nominal, ZONE RETAIL BACK_SPACE C END_B - STORY GROUND RETAIL BACK_SPACE INFILTRATION,RETAILINFILTRATION,ZONE RETAIL BACK_SPACE C END_B - STORY GROUND,20.90,0.7,6.230E-002,2.980E-003,8.128E-004,1.760,1.000,0.000,0.000,0.000
 ZoneInfiltration Airflow Stats Nominal, ZONE RETAIL ENTRY A  - STORY GROUND RETAIL ENTRY INFILTRATION,RETAILINFILTRATION,ZONE RETAIL ENTRY A  - STORY GROUND,1.30,0.5,1.934E-003,1.490E-003,6.386E-004,0.880,1.000,0.000,0.000,0.000
 ZoneInfiltration Airflow Stats Nominal, ZONE RETAIL ENTRY B  - STORY GROUND RETAIL ENTRY INFILTRATION,RETAILINFILTRATION,ZONE RETAIL ENTRY B  - STORY GROUND,9.33,3.3,0.000,0.000,0.000,0.000,1.000,0.000,0.000,0.000
 ZoneInfiltration Airflow Stats Nominal, ZONE RETAIL ENTRY C  - STORY GROUND RETAIL ENTRY INFILTRATION,RETAILINFILTRATION,ZONE RETAIL ENTRY C  - STORY GROUND,1.30,0.5,1.934E-003,1.490E-003,6.386E-004,0.880,1.000,0.000,0.000,0.000
 ZoneInfiltration Airflow Stats Nominal, ZONE RETAIL POINT_OF_SALE A  - STORY GROUND RETAIL POINT_OF_SALE INFILTRATION,RETAILINFILTRATION,ZONE RETAIL POINT_OF_SALE A  - STORY GROUND,16.40,5.8,2.444E-002,1.490E-003,6.386E-004,0.880,1.000,0.000,0.000,0.000
 ZoneInfiltration Airflow Stats Nominal, ZONE RETAIL POINT_OF_SALE B  - STORY GROUND RETAIL POINT_OF_SALE INFILTRATION,RETAILINFILTRATION,ZONE RETAIL POINT_OF_SALE B  - STORY GROUND,117.86,41.9,0.000,0.000,0.000,0.000,1.000,0.000,0.000,0.000
 ZoneInfiltration Airflow Stats Nominal, ZONE RETAIL POINT_OF_SALE C  - STORY GROUND RETAIL POINT_OF_SALE INFILTRATION,RETAILINFILTRATION,ZONE RETAIL POINT_OF_SALE C  - STORY GROUND,16.40,5.8,2.444E-002,1.490E-003,6.386E-004,0.880,1.000,0.000,0.000,0.000
 ZoneInfiltration Airflow Stats Nominal, ZONE RETAIL RETAIL A  - STORY GROUND RETAIL RETAIL INFILTRATION,RETAILINFILTRATION,ZONE RETAIL RETAIL A  - STORY GROUND,169.69,60.3,0.253,1.490E-003,6.386E-004,0.880,1.000,0.000,0.000,0.000
 ZoneInfiltration Airflow Stats Nominal, ZONE RETAIL RETAIL A END_A - STORY GROUND RETAIL RETAIL INFILTRATION,RETAILINFILTRATION,ZONE RETAIL RETAIL A END_A - STORY GROUND,20.90,7.4,6.230E-002,2.980E-003,8.128E-004,1.760,1.000,0.000,0.000,0.000
 ZoneInfiltration Airflow Stats Nominal, ZONE RETAIL RETAIL B  - STORY GROUND RETAIL RETAIL INFILTRATION,RETAILINFILTRATION,ZONE RETAIL RETAIL B  - STORY GROUND,1219.41,433.3,0.000,0.000,0.000,0.000,1.000,0.000,0.000,0.000
 ZoneInfiltration Airflow Stats Nominal, ZONE RETAIL RETAIL B END_A - STORY GROUND RETAIL RETAIL INFILTRATION,RETAILINFILTRATION,ZONE RETAIL RETAIL B END_A - STORY GROUND,150.21,53.4,0.224,1.490E-003,6.386E-004,0.880,1.000,0.000,0.000,0.000
 ZoneInfiltration Airflow Stats Nominal, ZONE RETAIL RETAIL C  - STORY GROUND RETAIL RETAIL INFILTRATION,RETAILINFILTRATION,ZONE RETAIL RETAIL C  - STORY GROUND,169.69,60.3,0.253,1.490E-003,6.386E-004,0.880,1.000,0.000,0.000,0.000
 ZoneInfiltration Airflow Stats Nominal, ZONE RETAIL RETAIL C END_A - STORY GROUND RETAIL RETAIL INFILTRATION,RETAILINFILTRATION,ZONE RETAIL RETAIL C END_A - STORY GROUND,20.90,7.4,6.230E-002,2.980E-003,8.128E-004,1.760,1.000,0.000,0.000,0.000
! <AirFlow Model>, Simple
 AirFlow Model, Simple
! <RoomAir Model>, Zone Name, Mixing/Mundt/UCSDDV/UCSDCV/UCSDUFI/UCSDUFE/User Defined
RoomAir Model,ZONE RETAIL BACK_SPACE A  - STORY GROUND,Mixing/Well-Stirred
RoomAir Model,ZONE RETAIL BACK_SPACE A END_B - STORY GROUND,Mixing/Well-Stirred
RoomAir Model,ZONE RETAIL BACK_SPACE B  - STORY GROUND,Mixing/Well-Stirred
RoomAir Model,ZONE RETAIL BACK_SPACE B END_B - STORY GROUND,Mixing/Well-Stirred
RoomAir Model,ZONE RETAIL BACK_SPACE C  - STORY GROUND,Mixing/Well-Stirred
RoomAir Model,ZONE RETAIL BACK_SPACE C END_B - STORY GROUND,Mixing/Well-Stirred
RoomAir Model,ZONE RETAIL ENTRY A  - STORY GROUND,Mixing/Well-Stirred
RoomAir Model,ZONE RETAIL ENTRY B  - STORY GROUND,Mixing/Well-Stirred
RoomAir Model,ZONE RETAIL ENTRY C  - STORY GROUND,Mixing/Well-Stirred
RoomAir Model,ZONE RETAIL POINT_OF_SALE A  - STORY GROUND,Mixing/Well-Stirred
RoomAir Model,ZONE RETAIL POINT_OF_SALE B  - STORY GROUND,Mixing/Well-Stirred
RoomAir Model,ZONE RETAIL POINT_OF_SALE C  - STORY GROUND,Mixing/Well-Stirred
RoomAir Model,ZONE RETAIL RETAIL A  - STORY GROUND,Mixing/Well-Stirred
RoomAir Model,ZONE RETAIL RETAIL A END_A - STORY GROUND,Mixing/Well-Stirred
RoomAir Model,ZONE RETAIL RETAIL B  - STORY GROUND,Mixing/Well-Stirred
RoomAir Model,ZONE RETAIL RETAIL B END_A - STORY GROUND,Mixing/Well-Stirred
RoomAir Model,ZONE RETAIL RETAIL C  - STORY GROUND,Mixing/Well-Stirred
RoomAir Model,ZONE RETAIL RETAIL C END_A - STORY GROUND,Mixing/Well-Stirred
! <AirflowNetwork Model:Control>, No Multizone or Distribution/Multizone with Distribution/Multizone without Distribution/Multizone with Distribution only during Fan Operation
AirflowNetwork Model:Control,NoMultizoneOrDistribution
! <Zone Volume Capacitance Multiplier>, Sensible Heat Capacity Multiplier, Moisture Capacity Multiplier, Carbon Dioxide Capacity Multiplier, Generic Contaminant Capacity Multiplier
Zone Volume Capacitance Multiplier,   1.000 ,   1.000,   1.000,   1.000
! <Load Timesteps in Zone Design Calculation Averaging Window>, Value
 Load Timesteps in Zone Design Calculation Averaging Window,    4
! <Heating Sizing Factor Information>, Sizing Factor ID, Value
 Heating Sizing Factor Information, Global,   1.2500    
 Heating Sizing Factor Information, Zone ZONE RETAIL BACK_SPACE A  - STORY GROUND,   1.2500    
 Heating Sizing Factor Information, Zone ZONE RETAIL BACK_SPACE A END_B - STORY GROUND,   1.2500    
 Heating Sizing Factor Information, Zone ZONE RETAIL BACK_SPACE B  - STORY GROUND,   1.2500    
 Heating Sizing Factor Information, Zone ZONE RETAIL BACK_SPACE B END_B - STORY GROUND,   1.2500    
 Heating Sizing Factor Information, Zone ZONE RETAIL BACK_SPACE C  - STORY GROUND,   1.2500    
 Heating Sizing Factor Information, Zone ZONE RETAIL BACK_SPACE C END_B - STORY GROUND,   1.2500    
 Heating Sizing Factor Information, Zone ZONE RETAIL ENTRY A  - STORY GROUND,   1.2500    
 Heating Sizing Factor Information, Zone ZONE RETAIL ENTRY B  - STORY GROUND,   1.2500    
 Heating Sizing Factor Information, Zone ZONE RETAIL ENTRY C  - STORY GROUND,   1.2500    
 Heating Sizing Factor Information, Zone ZONE RETAIL POINT_OF_SALE A  - STORY GROUND,   1.2500    
 Heating Sizing Factor Information, Zone ZONE RETAIL POINT_OF_SALE B  - STORY GROUND,   1.2500    
 Heating Sizing Factor Information, Zone ZONE RETAIL POINT_OF_SALE C  - STORY GROUND,   1.2500    
 Heating Sizing Factor Information, Zone ZONE RETAIL RETAIL A  - STORY GROUND,   1.2500    
 Heating Sizing Factor Information, Zone ZONE RETAIL RETAIL A END_A - STORY GROUND,   1.2500    
 Heating Sizing Factor Information, Zone ZONE RETAIL RETAIL B  - STORY GROUND,   1.2500    
 Heating Sizing Factor Information, Zone ZONE RETAIL RETAIL B END_A - STORY GROUND,   1.2500    
 Heating Sizing Factor Information, Zone ZONE RETAIL RETAIL C  - STORY GROUND,   1.2500    
 Heating Sizing Factor Information, Zone ZONE RETAIL RETAIL C END_A - STORY GROUND,   1.2500    
! <Cooling Sizing Factor Information>, Sizing Factor ID, Value
 Cooling Sizing Factor Information, Global,   1.1500    
 Cooling Sizing Factor Information, Zone ZONE RETAIL BACK_SPACE A  - STORY GROUND,   1.1500    
 Cooling Sizing Factor Information, Zone ZONE RETAIL BACK_SPACE A END_B - STORY GROUND,   1.1500    
 Cooling Sizing Factor Information, Zone ZONE RETAIL BACK_SPACE B  - STORY GROUND,   1.1500    
 Cooling Sizing Factor Information, Zone ZONE RETAIL BACK_SPACE B END_B - STORY GROUND,   1.1500    
 Cooling Sizing Factor Information, Zone ZONE RETAIL BACK_SPACE C  - STORY GROUND,   1.1500    
 Cooling Sizing Factor Information, Zone ZONE RETAIL BACK_SPACE C END_B - STORY GROUND,   1.1500    
 Cooling Sizing Factor Information, Zone ZONE RETAIL ENTRY A  - STORY GROUND,   1.1500    
 Cooling Sizing Factor Information, Zone ZONE RETAIL ENTRY B  - STORY GROUND,   1.1500    
 Cooling Sizing Factor Information, Zone ZONE RETAIL ENTRY C  - STORY GROUND,   1.1500    
 Cooling Sizing Factor Information, Zone ZONE RETAIL POINT_OF_SALE A  - STORY GROUND,   1.1500    
 Cooling Sizing Factor Information, Zone ZONE RETAIL POINT_OF_SALE B  - STORY GROUND,   1.1500    
 Cooling Sizing Factor Information, Zone ZONE RETAIL POINT_OF_SALE C  - STORY GROUND,   1.1500    
 Cooling Sizing Factor Information, Zone ZONE RETAIL RETAIL A  - STORY GROUND,   1.1500    
 Cooling Sizing Factor Information, Zone ZONE RETAIL RETAIL A END_A - STORY GROUND,   1.1500    
 Cooling Sizing Factor Information, Zone ZONE RETAIL RETAIL B  - STORY GROUND,   1.1500    
 Cooling Sizing Factor Information, Zone ZONE RETAIL RETAIL B END_A - STORY GROUND,   1.1500    
 Cooling Sizing Factor Information, Zone ZONE RETAIL RETAIL C  - STORY GROUND,   1.1500    
 Cooling Sizing Factor Information, Zone ZONE RETAIL RETAIL C END_A - STORY GROUND,   1.1500    
! <Sky Daylight Factors>, MonthAndDay, Zone Name, Window Name, Daylight Fac: Ref Pt #1, Daylight Fac: Ref Pt #2
 Clear Sky Daylight Factors,08/21,ZONE RETAIL RETAIL A  - STORY GROUND,SUB SURFACE 18,1.3927E-002,0.0000
 Clear Turbid Sky Daylight Factors,08/21,ZONE RETAIL RETAIL A  - STORY GROUND,SUB SURFACE 18,1.2645E-002,0.0000
 Intermediate Sky Daylight Factors,08/21,ZONE RETAIL RETAIL A  - STORY GROUND,SUB SURFACE 18,8.7112E-003,0.0000
 Overcast Sky Daylight Factors,08/21,ZONE RETAIL RETAIL A  - STORY GROUND,SUB SURFACE 18,6.1157E-003,0.0000
 Clear Sky Daylight Factors,08/21,ZONE RETAIL RETAIL A END_A - STORY GROUND,SUB SURFACE 1,8.2887E-003,0.0000
 Clear Turbid Sky Daylight Factors,08/21,ZONE RETAIL RETAIL A END_A - STORY GROUND,SUB SURFACE 1,6.8608E-003,0.0000
 Intermediate Sky Daylight Factors,08/21,ZONE RETAIL RETAIL A END_A - STORY GROUND,SUB SURFACE 1,4.3244E-003,0.0000
 Overcast Sky Daylight Factors,08/21,ZONE RETAIL RETAIL A END_A - STORY GROUND,SUB SURFACE 1,4.8373E-003,0.0000
 Clear Sky Daylight Factors,08/21,ZONE RETAIL RETAIL A END_A - STORY GROUND,SUB SURFACE 2,1.1451E-002,0.0000
 Clear Turbid Sky Daylight Factors,08/21,ZONE RETAIL RETAIL A END_A - STORY GROUND,SUB SURFACE 2,1.0397E-002,0.0000
 Intermediate Sky Daylight Factors,08/21,ZONE RETAIL RETAIL A END_A - STORY GROUND,SUB SURFACE 2,7.0494E-003,0.0000
 Overcast Sky Daylight Factors,08/21,ZONE RETAIL RETAIL A END_A - STORY GROUND,SUB SURFACE 2,4.8373E-003,0.0000
 Clear Sky Daylight Factors,08/21,ZONE RETAIL RETAIL B END_A - STORY GROUND,SUB SURFACE 16,1.0397E-002,0.0000
 Clear Turbid Sky Daylight Factors,08/21,ZONE RETAIL RETAIL B END_A - STORY GROUND,SUB SURFACE 16,8.6556E-003,0.0000
 Intermediate Sky Daylight Factors,08/21,ZONE RETAIL RETAIL B END_A - STORY GROUND,SUB SURFACE 16,5.5362E-003,0.0000
 Overcast Sky Daylight Factors,08/21,ZONE RETAIL RETAIL B END_A - STORY GROUND,SUB SURFACE 16,6.1131E-003,0.0000
 Clear Sky Daylight Factors,08/21,ZONE RETAIL RETAIL C  - STORY GROUND,SUB SURFACE 6,9.5175E-003,0.0000
 Clear Turbid Sky Daylight Factors,08/21,ZONE RETAIL RETAIL C  - STORY GROUND,SUB SURFACE 6,7.4824E-003,0.0000
 Intermediate Sky Daylight Factors,08/21,ZONE RETAIL RETAIL C  - STORY GROUND,SUB SURFACE 6,3.8797E-003,0.0000
 Overcast Sky Daylight Factors,08/21,ZONE RETAIL RETAIL C  - STORY GROUND,SUB SURFACE 6,6.1157E-003,0.0000
 Clear Sky Daylight Factors,08/21,ZONE RETAIL RETAIL C END_A - STORY GROUND,SUB SURFACE 13,8.2887E-003,0.0000
 Clear Turbid Sky Daylight Factors,08/21,ZONE RETAIL RETAIL C END_A - STORY GROUND,SUB SURFACE 13,6.8608E-003,0.0000
 Intermediate Sky Daylight Factors,08/21,ZONE RETAIL RETAIL C END_A - STORY GROUND,SUB SURFACE 13,4.3244E-003,0.0000
 Overcast Sky Daylight Factors,08/21,ZONE RETAIL RETAIL C END_A - STORY GROUND,SUB SURFACE 13,4.8373E-003,0.0000
 Clear Sky Daylight Factors,08/21,ZONE RETAIL RETAIL C END_A - STORY GROUND,SUB SURFACE 14,7.6931E-003,0.0000
 Clear Turbid Sky Daylight Factors,08/21,ZONE RETAIL RETAIL C END_A - STORY GROUND,SUB SURFACE 14,6.0002E-003,0.0000
 Intermediate Sky Daylight Factors,08/21,ZONE RETAIL RETAIL C END_A - STORY GROUND,SUB SURFACE 14,2.9658E-003,0.0000
 Overcast Sky Daylight Factors,08/21,ZONE RETAIL RETAIL C END_A - STORY GROUND,SUB SURFACE 14,4.8373E-003,0.0000
! <Zone Sizing Information>, Zone Name, Load Type, Calc Des Load {W}, User Des Load {W}, Calc Des Air Flow Rate {m3/s}, User Des Air Flow Rate {m3/s}, Design Day Name, Date/Time of Peak, Temperature at Peak {C}, Humidity Ratio at Peak {kgWater/kgDryAir}, Floor Area {m2}, # Occupants, Calc Outdoor Air Flow Rate {m3/s}, Calc DOAS Heat Addition Rate {W}
 Zone Sizing Information, ZONE RETAIL BACK_SPACE A  - STORY GROUND, Cooling, 1300.10825, 1495.12449, 9.44676E-002, 0.10864, CLIMATE ZONE 3 ANN CLG .4% CONDNS DB=>MWB, 8/21 13:30:00, 27.51500, 9.30032E-003, 20.43507, 0.65988, 2.07620E-002, 0.00000
 Zone Sizing Information, ZONE RETAIL BACK_SPACE A  - STORY GROUND, Heating, 1151.22442, 1439.03053, 4.93395E-002, 6.16744E-002, CLIMATE ZONE 3 ANN HTG 99.6% CONDNS DB, 1/21 01:00:00, 2.90000, 4.65595E-003, 20.43507, 0.65988, 2.07620E-002, 0.00000
 Zone Sizing Information, ZONE RETAIL BACK_SPACE A END_B - STORY GROUND, Cooling, 1928.94664, 2218.28864, 0.14016, 0.16119, CLIMATE ZONE 3 ANN CLG .4% CONDNS DB=>MWB, 8/21 11:00:00, 25.99800, 9.30032E-003, 20.90318, 0.67500, 2.12376E-002, 0.00000
 Zone Sizing Information, ZONE RETAIL BACK_SPACE A END_B - STORY GROUND, Heating, 2261.22667, 2826.53334, 9.68938E-002, 0.12112, CLIMATE ZONE 3 ANN HTG 99.6% CONDNS DB, 1/21 01:00:00, 2.90000, 4.65595E-003, 20.90318, 0.67500, 2.12376E-002, 0.00000
 Zone Sizing Information, ZONE RETAIL BACK_SPACE B  - STORY GROUND, Cooling, 7279.01882, 8370.87165, 0.47310, 0.54407, CLIMATE ZONE 3 ANN CLG .4% CONDNS DB=>MWB, 8/21 07:00:00, 20.96600, 9.30032E-003, 146.85058, 4.74206, 0.14920, 0.00000
 Zone Sizing Information, ZONE RETAIL BACK_SPACE B  - STORY GROUND, Heating, 322.86929, 403.58661, 1.38415E-002, 0.14920, CLIMATE ZONE 3 ANN HTG 99.6% CONDNS DB, 1/21 01:00:00, 2.90000, 4.65595E-003, 146.85058, 4.74206, 0.14920, 0.00000
 Zone Sizing Information, ZONE RETAIL BACK_SPACE B END_B - STORY GROUND, Cooling, 10001.98662, 11502.28461, 0.72677, 0.83578, CLIMATE ZONE 3 ANN CLG .4% CONDNS DB=>MWB, 8/21 09:45:00, 24.57350, 9.30032E-003, 150.21452, 4.85069, 0.15262, 0.00000
 Zone Sizing Information, ZONE RETAIL BACK_SPACE B END_B - STORY GROUND, Heating, 8213.38022, 10266.72528, 0.35200, 0.44000, CLIMATE ZONE 3 ANN HTG 99.6% CONDNS DB, 1/21 01:00:00, 2.90000, 4.65595E-003, 150.21452, 4.85069, 0.15262, 0.00000
 Zone Sizing Information, ZONE RETAIL BACK_SPACE C  - STORY GROUND, Cooling, 700.30731, 805.35341, 5.08854E-002, 5.85182E-002, CLIMATE ZONE 3 ANN CLG .4% CONDNS DB=>MWB, 8/21 13:30:00, 27.51500, 9.30032E-003, 20.43507, 0.65988, 2.07620E-002, 0.00000
 Zone Sizing Information, ZONE RETAIL BACK_SPACE C  - STORY GROUND, Heating, 1150.06016, 1437.57520, 4.92896E-002, 6.16120E-002, CLIMATE ZONE 3 ANN HTG 99.6% CONDNS DB, 1/21 01:00:00, 2.90000, 4.65595E-003, 20.43507, 0.65988, 2.07620E-002, 0.00000
 Zone Sizing Information, ZONE RETAIL BACK_SPACE C END_B - STORY GROUND, Cooling, 1567.23456, 1802.31975, 0.11388, 0.13096, CLIMATE ZONE 3 ANN CLG .4% CONDNS DB=>MWB, 8/21 10:15:00, 25.16550, 9.30032E-003, 20.90318, 0.67500, 2.12376E-002, 0.00000
 Zone Sizing Information, ZONE RETAIL BACK_SPACE C END_B - STORY GROUND, Heating, 2260.08402, 2825.10502, 9.68449E-002, 0.12106, CLIMATE ZONE 3 ANN HTG 99.6% CONDNS DB, 1/21 01:00:00, 2.90000, 4.65595E-003, 20.90318, 0.67500, 2.12376E-002, 0.00000
 Zone Sizing Information, ZONE RETAIL ENTRY A  - STORY GROUND, Cooling, 528.18327, 607.41076, 3.78922E-002, 4.35760E-002, CLIMATE ZONE 3 ANN CLG .4% CONDNS DB=>MWB, 8/21 07:00:00, 20.96600, 9.30032E-003, 1.29806, 0.46122, 3.26509E-003, 0.00000
 Zone Sizing Information, ZONE RETAIL ENTRY A  - STORY GROUND, Heating, 45.67129, 57.08911, 1.95785E-003, 3.26509E-003, CLIMATE ZONE 3 ANN HTG 99.6% CONDNS DB, 1/21 01:00:00, 2.90000, 4.65595E-003, 1.29806, 0.46122, 3.26509E-003, 0.00000
 Zone Sizing Information, ZONE RETAIL ENTRY B  - STORY GROUND, Cooling, 3760.08240, 4324.09476, 0.26998, 0.31047, CLIMATE ZONE 3 ANN CLG .4% CONDNS DB=>MWB, 8/21 07:00:00, 20.96600, 9.30032E-003, 9.32813, 3.31444, 2.34636E-002, 0.00000
 Zone Sizing Information, ZONE RETAIL ENTRY B  - STORY GROUND, Heating, 0.00000, 0.00000, 0.00000, 2.34636E-002, CLIMATE ZONE 3 ANN HTG 99.6% CONDNS DB, , 2.90000, 4.65595E-003, 9.32813, 3.31444, 2.34636E-002, 0.00000
 Zone Sizing Information, ZONE RETAIL ENTRY C  - STORY GROUND, Cooling, 535.14437, 615.41603, 3.84026E-002, 4.41630E-002, CLIMATE ZONE 3 ANN CLG .4% CONDNS DB=>MWB, 8/21 07:00:00, 20.96600, 9.30032E-003, 1.29806, 0.46122, 3.26509E-003, 0.00000
 Zone Sizing Information, ZONE RETAIL ENTRY C  - STORY GROUND, Heating, 45.48213, 56.85267, 1.94974E-003, 3.26509E-003, CLIMATE ZONE 3 ANN HTG 99.6% CONDNS DB, 1/21 01:00:00, 2.90000, 4.65595E-003, 1.29806, 0.46122, 3.26509E-003, 0.00000
 Zone Sizing Information, ZONE RETAIL POINT_OF_SALE A  - STORY GROUND, Cooling, 2066.13920, 2376.06008, 0.14047, 0.16154, CLIMATE ZONE 3 ANN CLG .4% CONDNS DB=>MWB, 8/21 07:00:00, 20.96600, 9.30032E-003, 16.40050, 5.82737, 4.12532E-002, 0.00000
 Zone Sizing Information, ZONE RETAIL POINT_OF_SALE A  - STORY GROUND, Heating, 426.83636, 533.54545, 1.82978E-002, 4.12532E-002, CLIMATE ZONE 3 ANN HTG 99.6% CONDNS DB, 1/21 01:00:00, 2.90000, 4.65595E-003, 16.40050, 5.82737, 4.12532E-002, 0.00000
 Zone Sizing Information, ZONE RETAIL POINT_OF_SALE B  - STORY GROUND, Cooling, 13882.14054, 15964.46162, 0.94099, 1.08214, CLIMATE ZONE 3 ANN CLG .4% CONDNS DB=>MWB, 8/21 07:00:00, 20.96600, 9.30032E-003, 117.85735, 41.87668, 0.29645, 0.00000
 Zone Sizing Information, ZONE RETAIL POINT_OF_SALE B  - STORY GROUND, Heating, 0.00000, 0.00000, 0.00000, 0.29645, CLIMATE ZONE 3 ANN HTG 99.6% CONDNS DB, , 2.90000, 4.65595E-003, 117.85735, 41.87668, 0.29645, 0.00000
 Zone Sizing Information, ZONE RETAIL POINT_OF_SALE C  - STORY GROUND, Cooling, 2094.58857, 2408.77686, 0.14253, 0.16391, CLIMATE ZONE 3 ANN CLG .4% CONDNS DB=>MWB, 8/21 07:00:00, 20.96600, 9.30032E-003, 16.40050, 5.82737, 4.12532E-002, 0.00000
 Zone Sizing Information, ZONE RETAIL POINT_OF_SALE C  - STORY GROUND, Heating, 425.88777, 532.35971, 1.82571E-002, 4.12532E-002, CLIMATE ZONE 3 ANN HTG 99.6% CONDNS DB, 1/21 01:00:00, 2.90000, 4.65595E-003, 16.40050, 5.82737, 4.12532E-002, 0.00000
 Zone Sizing Information, ZONE RETAIL RETAIL A  - STORY GROUND, Cooling, 17189.79567, 19768.26502, 1.15197, 1.32477, CLIMATE ZONE 3 ANN CLG .4% CONDNS DB=>MWB, 8/21 07:00:00, 20.96600, 9.30032E-003, 169.68715, 60.29268, 0.42682, 0.00000
 Zone Sizing Information, ZONE RETAIL RETAIL A  - STORY GROUND, Heating, 3409.60533, 4262.00666, 0.14616, 0.42682, CLIMATE ZONE 3 ANN HTG 99.6% CONDNS DB, 1/21 01:00:00, 2.90000, 4.65595E-003, 169.68715, 60.29268, 0.42682, 0.00000
 Zone Sizing Information, ZONE RETAIL RETAIL A END_A - STORY GROUND, Cooling, 2654.74854, 3052.96082, 0.19298, 0.22193, CLIMATE ZONE 3 ANN CLG .4% CONDNS DB=>MWB, 8/21 16:00:00, 27.25600, 9.30032E-003, 20.90318, 7.42725, 5.25791E-002, 0.00000
 Zone Sizing Information, ZONE RETAIL RETAIL A END_A - STORY GROUND, Heating, 1631.02446, 2038.78057, 6.99056E-002, 8.73820E-002, CLIMATE ZONE 3 ANN HTG 99.6% CONDNS DB, 1/21 01:00:00, 2.90000, 4.65595E-003, 20.90318, 7.42725, 5.25791E-002, 0.00000
 Zone Sizing Information, ZONE RETAIL RETAIL B  - STORY GROUND, Cooling, 118774.76871, 136590.98402, 7.94183, 9.13311, CLIMATE ZONE 3 ANN CLG .4% CONDNS DB=>MWB, 8/21 07:00:00, 20.96600, 9.30032E-003, 1219.40631, 433.27540, 3.06725, 0.00000
 Zone Sizing Information, ZONE RETAIL RETAIL B  - STORY GROUND, Heating, 0.00000, 0.00000, 0.00000, 3.06725, CLIMATE ZONE 3 ANN HTG 99.6% CONDNS DB, , 2.90000, 4.65595E-003, 1219.40631, 433.27540, 3.06725, 0.00000
 Zone Sizing Information, ZONE RETAIL RETAIL B END_A - STORY GROUND, Cooling, 15444.80828, 17761.52952, 1.03631, 1.19175, CLIMATE ZONE 3 ANN CLG .4% CONDNS DB=>MWB, 8/21 07:00:00, 20.96600, 9.30032E-003, 150.21452, 53.37373, 0.37784, 0.00000
 Zone Sizing Information, ZONE RETAIL RETAIL B END_A - STORY GROUND, Heating, 3078.53648, 3848.17060, 0.13197, 0.37784, CLIMATE ZONE 3 ANN HTG 99.6% CONDNS DB, 1/21 01:00:00, 2.90000, 4.65595E-003, 150.21452, 53.37373, 0.37784, 0.00000
 Zone Sizing Information, ZONE RETAIL RETAIL C  - STORY GROUND, Cooling, 17019.45228, 19572.37012, 1.13968, 1.31063, CLIMATE ZONE 3 ANN CLG .4% CONDNS DB=>MWB, 8/21 07:00:00, 20.96600, 9.30032E-003, 169.68715, 60.29268, 0.42682, 0.00000
 Zone Sizing Information, ZONE RETAIL RETAIL C  - STORY GROUND, Heating, 3400.12807, 4250.16009, 0.14576, 0.42682, CLIMATE ZONE 3 ANN HTG 99.6% CONDNS DB, 1/21 01:00:00, 2.90000, 4.65595E-003, 169.68715, 60.29268, 0.42682, 0.00000
 Zone Sizing Information, ZONE RETAIL RETAIL C END_A - STORY GROUND, Cooling, 2313.23413, 2660.21925, 0.16816, 0.19338, CLIMATE ZONE 3 ANN CLG .4% CONDNS DB=>MWB, 8/21 17:00:00, 26.66400, 9.30032E-003, 20.90318, 7.42725, 5.25791E-002, 0.00000
 Zone Sizing Information, ZONE RETAIL RETAIL C END_A - STORY GROUND, Heating, 1629.80941, 2037.26177, 6.98535E-002, 8.73169E-002, CLIMATE ZONE 3 ANN HTG 99.6% CONDNS DB, 1/21 01:00:00, 2.90000, 4.65595E-003, 20.90318, 7.42725, 5.25791E-002, 0.00000
! <System Sizing Information>, System Name, Field Description, Value
 System Sizing Information, ZONE RETAIL BACK_SPACE A  - STORY GROUND PSZ-AC, Calculated Cooling Design Air Flow Rate [m3/s], 0.10864
 System Sizing Information, ZONE RETAIL BACK_SPACE A  - STORY GROUND PSZ-AC, User Cooling Design Air Flow Rate [m3/s], 0.10864
 System Sizing Information, ZONE RETAIL BACK_SPACE A  - STORY GROUND PSZ-AC, Calculated Heating Design Air Flow Rate [m3/s], 6.16744E-002
 System Sizing Information, ZONE RETAIL BACK_SPACE A  - STORY GROUND PSZ-AC, User Heating Design Air Flow Rate [m3/s], 6.16744E-002
 System Sizing Information, ZONE RETAIL BACK_SPACE A END_B - STORY GROUND PSZ-AC, Calculated Cooling Design Air Flow Rate [m3/s], 0.16119
 System Sizing Information, ZONE RETAIL BACK_SPACE A END_B - STORY GROUND PSZ-AC, User Cooling Design Air Flow Rate [m3/s], 0.16119
 System Sizing Information, ZONE RETAIL BACK_SPACE A END_B - STORY GROUND PSZ-AC, Calculated Heating Design Air Flow Rate [m3/s], 0.12112
 System Sizing Information, ZONE RETAIL BACK_SPACE A END_B - STORY GROUND PSZ-AC, User Heating Design Air Flow Rate [m3/s], 0.12112
 System Sizing Information, ZONE RETAIL BACK_SPACE B  - STORY GROUND PSZ-AC, Calculated Cooling Design Air Flow Rate [m3/s], 0.54407
 System Sizing Information, ZONE RETAIL BACK_SPACE B  - STORY GROUND PSZ-AC, User Cooling Design Air Flow Rate [m3/s], 0.54407
 System Sizing Information, ZONE RETAIL BACK_SPACE B  - STORY GROUND PSZ-AC, Calculated Heating Design Air Flow Rate [m3/s], 0.14920
 System Sizing Information, ZONE RETAIL BACK_SPACE B  - STORY GROUND PSZ-AC, User Heating Design Air Flow Rate [m3/s], 0.14920
 System Sizing Information, ZONE RETAIL BACK_SPACE B END_B - STORY GROUND PSZ-AC, Calculated Cooling Design Air Flow Rate [m3/s], 0.83578
 System Sizing Information, ZONE RETAIL BACK_SPACE B END_B - STORY GROUND PSZ-AC, User Cooling Design Air Flow Rate [m3/s], 0.83578
 System Sizing Information, ZONE RETAIL BACK_SPACE B END_B - STORY GROUND PSZ-AC, Calculated Heating Design Air Flow Rate [m3/s], 0.44000
 System Sizing Information, ZONE RETAIL BACK_SPACE B END_B - STORY GROUND PSZ-AC, User Heating Design Air Flow Rate [m3/s], 0.44000
 System Sizing Information, ZONE RETAIL BACK_SPACE C  - STORY GROUND PSZ-AC, Calculated Cooling Design Air Flow Rate [m3/s], 5.85182E-002
 System Sizing Information, ZONE RETAIL BACK_SPACE C  - STORY GROUND PSZ-AC, User Cooling Design Air Flow Rate [m3/s], 5.85182E-002
 System Sizing Information, ZONE RETAIL BACK_SPACE C  - STORY GROUND PSZ-AC, Calculated Heating Design Air Flow Rate [m3/s], 6.16120E-002
 System Sizing Information, ZONE RETAIL BACK_SPACE C  - STORY GROUND PSZ-AC, User Heating Design Air Flow Rate [m3/s], 6.16120E-002
 System Sizing Information, ZONE RETAIL BACK_SPACE C END_B - STORY GROUND PSZ-AC, Calculated Cooling Design Air Flow Rate [m3/s], 0.13096
 System Sizing Information, ZONE RETAIL BACK_SPACE C END_B - STORY GROUND PSZ-AC, User Cooling Design Air Flow Rate [m3/s], 0.13096
 System Sizing Information, ZONE RETAIL BACK_SPACE C END_B - STORY GROUND PSZ-AC, Calculated Heating Design Air Flow Rate [m3/s], 0.12106
 System Sizing Information, ZONE RETAIL BACK_SPACE C END_B - STORY GROUND PSZ-AC, User Heating Design Air Flow Rate [m3/s], 0.12106
 System Sizing Information, ZONE RETAIL ENTRY A  - STORY GROUND PSZ-AC, Calculated Cooling Design Air Flow Rate [m3/s], 4.35760E-002
 System Sizing Information, ZONE RETAIL ENTRY A  - STORY GROUND PSZ-AC, User Cooling Design Air Flow Rate [m3/s], 4.35760E-002
 System Sizing Information, ZONE RETAIL ENTRY A  - STORY GROUND PSZ-AC, Calculated Heating Design Air Flow Rate [m3/s], 3.26509E-003
 System Sizing Information, ZONE RETAIL ENTRY A  - STORY GROUND PSZ-AC, User Heating Design Air Flow Rate [m3/s], 3.26509E-003
 System Sizing Information, ZONE RETAIL ENTRY B  - STORY GROUND PSZ-AC, Calculated Cooling Design Air Flow Rate [m3/s], 0.31446
 System Sizing Information, ZONE RETAIL ENTRY B  - STORY GROUND PSZ-AC, User Cooling Design Air Flow Rate [m3/s], 0.31446
 System Sizing Information, ZONE RETAIL ENTRY B  - STORY GROUND PSZ-AC, Calculated Heating Design Air Flow Rate [m3/s], 2.34636E-002
 System Sizing Information, ZONE RETAIL ENTRY B  - STORY GROUND PSZ-AC, User Heating Design Air Flow Rate [m3/s], 2.34636E-002
 System Sizing Information, ZONE RETAIL ENTRY C  - STORY GROUND PSZ-AC, Calculated Cooling Design Air Flow Rate [m3/s], 4.41630E-002
 System Sizing Information, ZONE RETAIL ENTRY C  - STORY GROUND PSZ-AC, User Cooling Design Air Flow Rate [m3/s], 4.41630E-002
 System Sizing Information, ZONE RETAIL ENTRY C  - STORY GROUND PSZ-AC, Calculated Heating Design Air Flow Rate [m3/s], 3.26509E-003
 System Sizing Information, ZONE RETAIL ENTRY C  - STORY GROUND PSZ-AC, User Heating Design Air Flow Rate [m3/s], 3.26509E-003
 System Sizing Information, ZONE RETAIL POINT_OF_SALE A  - STORY GROUND PSZ-AC, Calculated Cooling Design Air Flow Rate [m3/s], 0.16154
 System Sizing Information, ZONE RETAIL POINT_OF_SALE A  - STORY GROUND PSZ-AC, User Cooling Design Air Flow Rate [m3/s], 0.16154
 System Sizing Information, ZONE RETAIL POINT_OF_SALE A  - STORY GROUND PSZ-AC, Calculated Heating Design Air Flow Rate [m3/s], 4.12532E-002
 System Sizing Information, ZONE RETAIL POINT_OF_SALE A  - STORY GROUND PSZ-AC, User Heating Design Air Flow Rate [m3/s], 4.12532E-002
 System Sizing Information, ZONE RETAIL POINT_OF_SALE B  - STORY GROUND PSZ-AC, Calculated Cooling Design Air Flow Rate [m3/s], 1.08214
 System Sizing Information, ZONE RETAIL POINT_OF_SALE B  - STORY GROUND PSZ-AC, User Cooling Design Air Flow Rate [m3/s], 1.08214
 System Sizing Information, ZONE RETAIL POINT_OF_SALE B  - STORY GROUND PSZ-AC, Calculated Heating Design Air Flow Rate [m3/s], 0.29645
 System Sizing Information, ZONE RETAIL POINT_OF_SALE B  - STORY GROUND PSZ-AC, User Heating Design Air Flow Rate [m3/s], 0.29645
 System Sizing Information, ZONE RETAIL POINT_OF_SALE C  - STORY GROUND PSZ-AC, Calculated Cooling Design Air Flow Rate [m3/s], 0.16391
 System Sizing Information, ZONE RETAIL POINT_OF_SALE C  - STORY GROUND PSZ-AC, User Cooling Design Air Flow Rate [m3/s], 0.16391
 System Sizing Information, ZONE RETAIL POINT_OF_SALE C  - STORY GROUND PSZ-AC, Calculated Heating Design Air Flow Rate [m3/s], 4.12532E-002
 System Sizing Information, ZONE RETAIL POINT_OF_SALE C  - STORY GROUND PSZ-AC, User Heating Design Air Flow Rate [m3/s], 4.12532E-002
 System Sizing Information, ZONE RETAIL RETAIL A  - STORY GROUND PSZ-AC, Calculated Cooling Design Air Flow Rate [m3/s], 1.32477
 System Sizing Information, ZONE RETAIL RETAIL A  - STORY GROUND PSZ-AC, User Cooling Design Air Flow Rate [m3/s], 1.32477
 System Sizing Information, ZONE RETAIL RETAIL A  - STORY GROUND PSZ-AC, Calculated Heating Design Air Flow Rate [m3/s], 0.42682
 System Sizing Information, ZONE RETAIL RETAIL A  - STORY GROUND PSZ-AC, User Heating Design Air Flow Rate [m3/s], 0.42682
 System Sizing Information, ZONE RETAIL RETAIL A END_A - STORY GROUND PSZ-AC, Calculated Cooling Design Air Flow Rate [m3/s], 0.22193
 System Sizing Information, ZONE RETAIL RETAIL A END_A - STORY GROUND PSZ-AC, User Cooling Design Air Flow Rate [m3/s], 0.22193
 System Sizing Information, ZONE RETAIL RETAIL A END_A - STORY GROUND PSZ-AC, Calculated Heating Design Air Flow Rate [m3/s], 8.73820E-002
 System Sizing Information, ZONE RETAIL RETAIL A END_A - STORY GROUND PSZ-AC, User Heating Design Air Flow Rate [m3/s], 8.73820E-002
 System Sizing Information, ZONE RETAIL RETAIL B  - STORY GROUND PSZ-AC, Calculated Cooling Design Air Flow Rate [m3/s], 9.13311
 System Sizing Information, ZONE RETAIL RETAIL B  - STORY GROUND PSZ-AC, User Cooling Design Air Flow Rate [m3/s], 9.13311
 System Sizing Information, ZONE RETAIL RETAIL B  - STORY GROUND PSZ-AC, Calculated Heating Design Air Flow Rate [m3/s], 3.06725
 System Sizing Information, ZONE RETAIL RETAIL B  - STORY GROUND PSZ-AC, User Heating Design Air Flow Rate [m3/s], 3.06725
 System Sizing Information, ZONE RETAIL RETAIL B END_A - STORY GROUND PSZ-AC, Calculated Cooling Design Air Flow Rate [m3/s], 1.21443
 System Sizing Information, ZONE RETAIL RETAIL B END_A - STORY GROUND PSZ-AC, User Cooling Design Air Flow Rate [m3/s], 1.21443
 System Sizing Information, ZONE RETAIL RETAIL B END_A - STORY GROUND PSZ-AC, Calculated Heating Design Air Flow Rate [m3/s], 0.37784
 System Sizing Information, ZONE RETAIL RETAIL B END_A - STORY GROUND PSZ-AC, User Heating Design Air Flow Rate [m3/s], 0.37784
 System Sizing Information, ZONE RETAIL RETAIL C  - STORY GROUND PSZ-AC, Calculated Cooling Design Air Flow Rate [m3/s], 1.31063
 System Sizing Information, ZONE RETAIL RETAIL C  - STORY GROUND PSZ-AC, User Cooling Design Air Flow Rate [m3/s], 1.31063
 System Sizing Information, ZONE RETAIL RETAIL C  - STORY GROUND PSZ-AC, Calculated Heating Design Air Flow Rate [m3/s], 0.42682
 System Sizing Information, ZONE RETAIL RETAIL C  - STORY GROUND PSZ-AC, User Heating Design Air Flow Rate [m3/s], 0.42682
 System Sizing Information, ZONE RETAIL RETAIL C END_A - STORY GROUND PSZ-AC, Calculated Cooling Design Air Flow Rate [m3/s], 0.19338
 System Sizing Information, ZONE RETAIL RETAIL C END_A - STORY GROUND PSZ-AC, User Cooling Design Air Flow Rate [m3/s], 0.19338
 System Sizing Information, ZONE RETAIL RETAIL C END_A - STORY GROUND PSZ-AC, Calculated Heating Design Air Flow Rate [m3/s], 8.73169E-002
 System Sizing Information, ZONE RETAIL RETAIL C END_A - STORY GROUND PSZ-AC, User Heating Design Air Flow Rate [m3/s], 8.73169E-002
! <Component Sizing Information>, Component Type, Component Name, Input Field Description, Value
 Component Sizing Information, AirTerminal:SingleDuct:Uncontrolled, ZONE RETAIL BACK_SPACE A  - STORY GROUND PSZ-AC DIFFUSER, Design Size Maximum Air Flow Rate [m3/s], 0.10864
 Component Sizing Information, AirTerminal:SingleDuct:Uncontrolled, ZONE RETAIL BACK_SPACE A END_B - STORY GROUND PSZ-AC DIFFUSER, Design Size Maximum Air Flow Rate [m3/s], 0.16119
 Component Sizing Information, AirTerminal:SingleDuct:Uncontrolled, ZONE RETAIL BACK_SPACE B  - STORY GROUND PSZ-AC DIFFUSER, Design Size Maximum Air Flow Rate [m3/s], 0.54407
 Component Sizing Information, AirTerminal:SingleDuct:Uncontrolled, ZONE RETAIL BACK_SPACE B END_B - STORY GROUND PSZ-AC DIFFUSER, Design Size Maximum Air Flow Rate [m3/s], 0.83578
 Component Sizing Information, AirTerminal:SingleDuct:Uncontrolled, ZONE RETAIL BACK_SPACE C  - STORY GROUND PSZ-AC DIFFUSER, Design Size Maximum Air Flow Rate [m3/s], 6.16120E-002
 Component Sizing Information, AirTerminal:SingleDuct:Uncontrolled, ZONE RETAIL BACK_SPACE C END_B - STORY GROUND PSZ-AC DIFFUSER, Design Size Maximum Air Flow Rate [m3/s], 0.13096
 Component Sizing Information, AirTerminal:SingleDuct:Uncontrolled, ZONE RETAIL ENTRY A  - STORY GROUND PSZ-AC DIFFUSER, Design Size Maximum Air Flow Rate [m3/s], 4.35760E-002
 Component Sizing Information, AirTerminal:SingleDuct:Uncontrolled, ZONE RETAIL ENTRY B  - STORY GROUND PSZ-AC DIFFUSER, Design Size Maximum Air Flow Rate [m3/s], 0.31047
 Component Sizing Information, AirTerminal:SingleDuct:Uncontrolled, ZONE RETAIL ENTRY C  - STORY GROUND PSZ-AC DIFFUSER, Design Size Maximum Air Flow Rate [m3/s], 4.41630E-002
 Component Sizing Information, AirTerminal:SingleDuct:Uncontrolled, ZONE RETAIL POINT_OF_SALE A  - STORY GROUND PSZ-AC DIFFUSER, Design Size Maximum Air Flow Rate [m3/s], 0.16154
 Component Sizing Information, AirTerminal:SingleDuct:Uncontrolled, ZONE RETAIL POINT_OF_SALE B  - STORY GROUND PSZ-AC DIFFUSER, Design Size Maximum Air Flow Rate [m3/s], 1.08214
 Component Sizing Information, AirTerminal:SingleDuct:Uncontrolled, ZONE RETAIL POINT_OF_SALE C  - STORY GROUND PSZ-AC DIFFUSER, Design Size Maximum Air Flow Rate [m3/s], 0.16391
 Component Sizing Information, AirTerminal:SingleDuct:Uncontrolled, ZONE RETAIL RETAIL A  - STORY GROUND PSZ-AC DIFFUSER, Design Size Maximum Air Flow Rate [m3/s], 1.32477
 Component Sizing Information, AirTerminal:SingleDuct:Uncontrolled, ZONE RETAIL RETAIL A END_A - STORY GROUND PSZ-AC DIFFUSER, Design Size Maximum Air Flow Rate [m3/s], 0.22193
 Component Sizing Information, AirTerminal:SingleDuct:Uncontrolled, ZONE RETAIL RETAIL B  - STORY GROUND PSZ-AC DIFFUSER, Design Size Maximum Air Flow Rate [m3/s], 9.13311
 Component Sizing Information, AirTerminal:SingleDuct:Uncontrolled, ZONE RETAIL RETAIL B END_A - STORY GROUND PSZ-AC DIFFUSER, Design Size Maximum Air Flow Rate [m3/s], 1.19175
 Component Sizing Information, AirTerminal:SingleDuct:Uncontrolled, ZONE RETAIL RETAIL C  - STORY GROUND PSZ-AC DIFFUSER, Design Size Maximum Air Flow Rate [m3/s], 1.31063
 Component Sizing Information, AirTerminal:SingleDuct:Uncontrolled, ZONE RETAIL RETAIL C END_A - STORY GROUND PSZ-AC DIFFUSER, Design Size Maximum Air Flow Rate [m3/s], 0.19338
 Component Sizing Information, AirLoopHVAC, ZONE RETAIL BACK_SPACE A  - STORY GROUND PSZ-AC, Design Supply Air Flow Rate [m3/s], 0.10864
 Component Sizing Information, AirLoopHVAC, ZONE RETAIL BACK_SPACE A END_B - STORY GROUND PSZ-AC, Design Supply Air Flow Rate [m3/s], 0.16119
 Component Sizing Information, AirLoopHVAC, ZONE RETAIL BACK_SPACE B  - STORY GROUND PSZ-AC, Design Supply Air Flow Rate [m3/s], 0.54407
 Component Sizing Information, AirLoopHVAC, ZONE RETAIL BACK_SPACE B END_B - STORY GROUND PSZ-AC, Design Supply Air Flow Rate [m3/s], 0.83578
 Component Sizing Information, AirLoopHVAC, ZONE RETAIL BACK_SPACE C  - STORY GROUND PSZ-AC, Design Supply Air Flow Rate [m3/s], 6.16120E-002
 Component Sizing Information, AirLoopHVAC, ZONE RETAIL BACK_SPACE C END_B - STORY GROUND PSZ-AC, Design Supply Air Flow Rate [m3/s], 0.13096
 Component Sizing Information, AirLoopHVAC, ZONE RETAIL ENTRY A  - STORY GROUND PSZ-AC, Design Supply Air Flow Rate [m3/s], 4.35760E-002
 Component Sizing Information, AirLoopHVAC, ZONE RETAIL ENTRY B  - STORY GROUND PSZ-AC, Design Supply Air Flow Rate [m3/s], 0.31446
 Component Sizing Information, AirLoopHVAC, ZONE RETAIL ENTRY C  - STORY GROUND PSZ-AC, Design Supply Air Flow Rate [m3/s], 4.41630E-002
 Component Sizing Information, AirLoopHVAC, ZONE RETAIL POINT_OF_SALE A  - STORY GROUND PSZ-AC, Design Supply Air Flow Rate [m3/s], 0.16154
 Component Sizing Information, AirLoopHVAC, ZONE RETAIL POINT_OF_SALE B  - STORY GROUND PSZ-AC, Design Supply Air Flow Rate [m3/s], 1.08214
 Component Sizing Information, AirLoopHVAC, ZONE RETAIL POINT_OF_SALE C  - STORY GROUND PSZ-AC, Design Supply Air Flow Rate [m3/s], 0.16391
 Component Sizing Information, AirLoopHVAC, ZONE RETAIL RETAIL A  - STORY GROUND PSZ-AC, Design Supply Air Flow Rate [m3/s], 1.32477
 Component Sizing Information, AirLoopHVAC, ZONE RETAIL RETAIL A END_A - STORY GROUND PSZ-AC, Design Supply Air Flow Rate [m3/s], 0.22193
 Component Sizing Information, AirLoopHVAC, ZONE RETAIL RETAIL B  - STORY GROUND PSZ-AC, Design Supply Air Flow Rate [m3/s], 9.13311
 Component Sizing Information, AirLoopHVAC, ZONE RETAIL RETAIL B END_A - STORY GROUND PSZ-AC, Design Supply Air Flow Rate [m3/s], 1.21443
 Component Sizing Information, AirLoopHVAC, ZONE RETAIL RETAIL C  - STORY GROUND PSZ-AC, Design Supply Air Flow Rate [m3/s], 1.31063
 Component Sizing Information, AirLoopHVAC, ZONE RETAIL RETAIL C END_A - STORY GROUND PSZ-AC, Design Supply Air Flow Rate [m3/s], 0.19338
!<Controller:MechanicalVentilation>,Name,Availability Schedule Name,Demand Controlled Ventilation {Yes/No},System Outdoor Air Method,Zone Maximum Outdoor Air Fraction,Number of Zones,Zone Name,DSOA Name,DSZAD Name
 Controller:MechanicalVentilation,CONTROLLER MECHANICAL VENTILATION 17,ALWAYS ON DISCRETE,No,ZoneSum,1.00,1,ZONE RETAIL BACK_SPACE A  - STORY GROUND,RETAIL BACK_SPACE VENTILATION,ZONE RETAIL BACK_SPACE A  - STORY GROUND DESIGN SPEC ZONE AIR DIST
 Controller:MechanicalVentilation,CONTROLLER MECHANICAL VENTILATION 18,ALWAYS ON DISCRETE,No,ZoneSum,1.00,1,ZONE RETAIL BACK_SPACE A END_B - STORY GROUND,RETAIL BACK_SPACE VENTILATION,ZONE RETAIL BACK_SPACE A END_B - STORY GROUND DESIGN SPEC ZONE AIR DIST
 Controller:MechanicalVentilation,CONTROLLER MECHANICAL VENTILATION 15,ALWAYS ON DISCRETE,No,ZoneSum,1.00,1,ZONE RETAIL BACK_SPACE B  - STORY GROUND,RETAIL BACK_SPACE VENTILATION,ZONE RETAIL BACK_SPACE B  - STORY GROUND DESIGN SPEC ZONE AIR DIST
 Controller:MechanicalVentilation,CONTROLLER MECHANICAL VENTILATION 3,ALWAYS ON DISCRETE,No,ZoneSum,1.00,1,ZONE RETAIL BACK_SPACE B END_B - STORY GROUND,RETAIL BACK_SPACE VENTILATION,ZONE RETAIL BACK_SPACE B END_B - STORY GROUND DESIGN SPEC ZONE AIR DIST
 Controller:MechanicalVentilation,CONTROLLER MECHANICAL VENTILATION 4,ALWAYS ON DISCRETE,No,ZoneSum,1.00,1,ZONE RETAIL BACK_SPACE C  - STORY GROUND,RETAIL BACK_SPACE VENTILATION,ZONE RETAIL BACK_SPACE C  - STORY GROUND DESIGN SPEC ZONE AIR DIST
 Controller:MechanicalVentilation,CONTROLLER MECHANICAL VENTILATION 6,ALWAYS ON DISCRETE,No,ZoneSum,1.00,1,ZONE RETAIL BACK_SPACE C END_B - STORY GROUND,RETAIL BACK_SPACE VENTILATION,ZONE RETAIL BACK_SPACE C END_B - STORY GROUND DESIGN SPEC ZONE AIR DIST
 Controller:MechanicalVentilation,CONTROLLER MECHANICAL VENTILATION 9,ALWAYS ON DISCRETE,No,ZoneSum,1.00,1,ZONE RETAIL ENTRY A  - STORY GROUND,RETAIL ENTRY VENTILATION,ZONE RETAIL ENTRY A  - STORY GROUND DESIGN SPEC ZONE AIR DIST
 Controller:MechanicalVentilation,CONTROLLER MECHANICAL VENTILATION 8,ALWAYS ON DISCRETE,No,ZoneSum,1.00,1,ZONE RETAIL ENTRY B  - STORY GROUND,RETAIL ENTRY VENTILATION,ZONE RETAIL ENTRY B  - STORY GROUND DESIGN SPEC ZONE AIR DIST
 Controller:MechanicalVentilation,CONTROLLER MECHANICAL VENTILATION 12,ALWAYS ON DISCRETE,No,ZoneSum,1.00,1,ZONE RETAIL ENTRY C  - STORY GROUND,RETAIL ENTRY VENTILATION,ZONE RETAIL ENTRY C  - STORY GROUND DESIGN SPEC ZONE AIR DIST
 Controller:MechanicalVentilation,CONTROLLER MECHANICAL VENTILATION 5,ALWAYS ON DISCRETE,No,ZoneSum,1.00,1,ZONE RETAIL POINT_OF_SALE A  - STORY GROUND,RETAIL POINT_OF_SALE VENTILATION,ZONE RETAIL POINT_OF_SALE A  - STORY GROUND DESIGN SPEC ZONE AIR DIST
 Controller:MechanicalVentilation,CONTROLLER MECHANICAL VENTILATION 1,ALWAYS ON DISCRETE,No,ZoneSum,1.00,1,ZONE RETAIL POINT_OF_SALE B  - STORY GROUND,RETAIL POINT_OF_SALE VENTILATION,ZONE RETAIL POINT_OF_SALE B  - STORY GROUND DESIGN SPEC ZONE AIR DIST
 Controller:MechanicalVentilation,CONTROLLER MECHANICAL VENTILATION 13,ALWAYS ON DISCRETE,No,ZoneSum,1.00,1,ZONE RETAIL POINT_OF_SALE C  - STORY GROUND,RETAIL POINT_OF_SALE VENTILATION,ZONE RETAIL POINT_OF_SALE C  - STORY GROUND DESIGN SPEC ZONE AIR DIST
 Controller:MechanicalVentilation,CONTROLLER MECHANICAL VENTILATION 2,ALWAYS ON DISCRETE,No,ZoneSum,1.00,1,ZONE RETAIL RETAIL A  - STORY GROUND,RETAIL RETAIL VENTILATION,ZONE RETAIL RETAIL A  - STORY GROUND DESIGN SPEC ZONE AIR DIST
 Controller:MechanicalVentilation,CONTROLLER MECHANICAL VENTILATION 14,ALWAYS ON DISCRETE,No,ZoneSum,1.00,1,ZONE RETAIL RETAIL A END_A - STORY GROUND,RETAIL RETAIL VENTILATION,ZONE RETAIL RETAIL A END_A - STORY GROUND DESIGN SPEC ZONE AIR DIST
 Controller:MechanicalVentilation,CONTROLLER MECHANICAL VENTILATION 7,ALWAYS ON DISCRETE,No,ZoneSum,1.00,1,ZONE RETAIL RETAIL B  - STORY GROUND,RETAIL RETAIL VENTILATION,ZONE RETAIL RETAIL B  - STORY GROUND DESIGN SPEC ZONE AIR DIST
 Controller:MechanicalVentilation,CONTROLLER MECHANICAL VENTILATION 16,ALWAYS ON DISCRETE,No,ZoneSum,1.00,1,ZONE RETAIL RETAIL B END_A - STORY GROUND,RETAIL RETAIL VENTILATION,ZONE RETAIL RETAIL B END_A - STORY GROUND DESIGN SPEC ZONE AIR DIST
 Controller:MechanicalVentilation,CONTROLLER MECHANICAL VENTILATION 10,ALWAYS ON DISCRETE,No,ZoneSum,1.00,1,ZONE RETAIL RETAIL C  - STORY GROUND,RETAIL RETAIL VENTILATION,ZONE RETAIL RETAIL C  - STORY GROUND DESIGN SPEC ZONE AIR DIST
 Controller:MechanicalVentilation,CONTROLLER MECHANICAL VENTILATION 11,ALWAYS ON DISCRETE,No,ZoneSum,1.00,1,ZONE RETAIL RETAIL C END_A - STORY GROUND,RETAIL RETAIL VENTILATION,ZONE RETAIL RETAIL C END_A - STORY GROUND DESIGN SPEC ZONE AIR DIST
 Component Sizing Information, Controller:OutdoorAir, ZONE RETAIL BACK_SPACE A  - STORY GROUND PSZ-AC OA SYS CONTROLLER, Maximum Outdoor Air Flow Rate [m3/s], 0.10864
 Component Sizing Information, Coil:Cooling:DX:SingleSpeed, ZONE RETAIL BACK_SPACE A  - STORY GROUND PSZ-AC 1SPD DX AC CLG COIL 6KBTU/HR 6.8EER, Design Size Rated Air Flow Rate [m3/s], 0.10864
 Component Sizing Information, Coil:Cooling:DX:SingleSpeed, ZONE RETAIL BACK_SPACE A  - STORY GROUND PSZ-AC 1SPD DX AC CLG COIL 6KBTU/HR 6.8EER, Design Size Gross Rated Total Cooling Capacity [W], 1798.34063
 Component Sizing Information, Coil:Cooling:DX:SingleSpeed, ZONE RETAIL BACK_SPACE A  - STORY GROUND PSZ-AC 1SPD DX AC CLG COIL 6KBTU/HR 6.8EER, Design Size Gross Rated Sensible Heat Ratio, 0.79866
! <DX Cooling Coil Standard Rating Information>, Component Type, Component Name, Standard Rating (Net) Cooling Capacity {W}, Standard Rated Net COP {W/W}, EER {Btu/W-h}, SEER {Btu/W-h}, IEER {Btu/W-h}
 DX Cooling Coil Standard Rating Information, Coil:Cooling:DX:SingleSpeed, ZONE RETAIL BACK_SPACE A  - STORY GROUND PSZ-AC 1SPD DX AC CLG COIL 6KBTU/HR 6.8EER, 1714.0, 1.98, 6.76, 7.18, 7.03
 Component Sizing Information, Coil:Heating:Fuel, ZONE RETAIL BACK_SPACE A  - STORY GROUND PSZ-AC GAS HTG COIL, Design Size Nominal Capacity [W], 2952.44383
 Component Sizing Information, Coil:Heating:Electric, ZONE RETAIL BACK_SPACE A  - STORY GROUND PSZ-AC ELECTRIC BACKUP HTG COIL, Design Size Nominal Capacity [W], 2952.44383
 Component Sizing Information, Fan:ConstantVolume, ZONE RETAIL BACK_SPACE A  - STORY GROUND PSZ-AC FAN, Design Size Maximum Flow Rate [m3/s], 0.10864
 Component Sizing Information, Controller:OutdoorAir, ZONE RETAIL BACK_SPACE A END_B - STORY GROUND PSZ-AC OA SYS CONTROLLER, Maximum Outdoor Air Flow Rate [m3/s], 0.16119
 Component Sizing Information, Coil:Cooling:DX:SingleSpeed, ZONE RETAIL BACK_SPACE A END_B - STORY GROUND PSZ-AC 1SPD DX AC CLG COIL 9KBTU/HR 6.8EER, Design Size Rated Air Flow Rate [m3/s], 0.16119
 Component Sizing Information, Coil:Cooling:DX:SingleSpeed, ZONE RETAIL BACK_SPACE A END_B - STORY GROUND PSZ-AC 1SPD DX AC CLG COIL 9KBTU/HR 6.8EER, Design Size Gross Rated Total Cooling Capacity [W], 2668.20042
 Component Sizing Information, Coil:Cooling:DX:SingleSpeed, ZONE RETAIL BACK_SPACE A END_B - STORY GROUND PSZ-AC 1SPD DX AC CLG COIL 9KBTU/HR 6.8EER, Design Size Gross Rated Sensible Heat Ratio, 0.79866
 DX Cooling Coil Standard Rating Information, Coil:Cooling:DX:SingleSpeed, ZONE RETAIL BACK_SPACE A END_B - STORY GROUND PSZ-AC 1SPD DX AC CLG COIL 9KBTU/HR 6.8EER, 2543.1, 1.98, 6.76, 7.19, 7.03
 Component Sizing Information, Coil:Heating:Fuel, ZONE RETAIL BACK_SPACE A END_B - STORY GROUND PSZ-AC GAS HTG COIL, Design Size Nominal Capacity [W], 4171.70379
 Component Sizing Information, Coil:Heating:Electric, ZONE RETAIL BACK_SPACE A END_B - STORY GROUND PSZ-AC ELECTRIC BACKUP HTG COIL, Design Size Nominal Capacity [W], 4171.70379
 Component Sizing Information, Fan:ConstantVolume, ZONE RETAIL BACK_SPACE A END_B - STORY GROUND PSZ-AC FAN, Design Size Maximum Flow Rate [m3/s], 0.16119
 Component Sizing Information, Controller:OutdoorAir, ZONE RETAIL BACK_SPACE B  - STORY GROUND PSZ-AC OA SYS CONTROLLER, Maximum Outdoor Air Flow Rate [m3/s], 0.54407
 Component Sizing Information, Coil:Cooling:DX:SingleSpeed, ZONE RETAIL BACK_SPACE B  - STORY GROUND PSZ-AC 1SPD DX AC CLG COIL 34KBTU/HR 6.8EER, Design Size Rated Air Flow Rate [m3/s], 0.54407
 Component Sizing Information, Coil:Cooling:DX:SingleSpeed, ZONE RETAIL BACK_SPACE B  - STORY GROUND PSZ-AC 1SPD DX AC CLG COIL 34KBTU/HR 6.8EER, Design Size Gross Rated Total Cooling Capacity [W], 9396.03729
 Component Sizing Information, Coil:Cooling:DX:SingleSpeed, ZONE RETAIL BACK_SPACE B  - STORY GROUND PSZ-AC 1SPD DX AC CLG COIL 34KBTU/HR 6.8EER, Design Size Gross Rated Sensible Heat Ratio, 0.78340
 DX Cooling Coil Standard Rating Information, Coil:Cooling:DX:SingleSpeed, ZONE RETAIL BACK_SPACE B  - STORY GROUND PSZ-AC 1SPD DX AC CLG COIL 34KBTU/HR 6.8EER, 8973.8, 2.00, 6.84, 7.27, 7.13
 Component Sizing Information, Coil:Heating:Fuel, ZONE RETAIL BACK_SPACE B  - STORY GROUND PSZ-AC GAS HTG COIL, Design Size Nominal Capacity [W], 15773.66535
 Component Sizing Information, Coil:Heating:Electric, ZONE RETAIL BACK_SPACE B  - STORY GROUND PSZ-AC ELECTRIC BACKUP HTG COIL, Design Size Nominal Capacity [W], 15773.66535
 Component Sizing Information, Fan:ConstantVolume, ZONE RETAIL BACK_SPACE B  - STORY GROUND PSZ-AC FAN, Design Size Maximum Flow Rate [m3/s], 0.54407
 Component Sizing Information, Controller:OutdoorAir, ZONE RETAIL BACK_SPACE B END_B - STORY GROUND PSZ-AC OA SYS CONTROLLER, Maximum Outdoor Air Flow Rate [m3/s], 0.83578
 Component Sizing Information, Coil:Cooling:DX:SingleSpeed, ZONE RETAIL BACK_SPACE B END_B - STORY GROUND PSZ-AC 1SPD DX AC CLG COIL 47KBTU/HR 6.8EER, Design Size Rated Air Flow Rate [m3/s], 0.83578
 Component Sizing Information, Coil:Cooling:DX:SingleSpeed, ZONE RETAIL BACK_SPACE B END_B - STORY GROUND PSZ-AC 1SPD DX AC CLG COIL 47KBTU/HR 6.8EER, Design Size Gross Rated Total Cooling Capacity [W], 13835.16536
 Component Sizing Information, Coil:Cooling:DX:SingleSpeed, ZONE RETAIL BACK_SPACE B END_B - STORY GROUND PSZ-AC 1SPD DX AC CLG COIL 47KBTU/HR 6.8EER, Design Size Gross Rated Sensible Heat Ratio, 0.79866
 DX Cooling Coil Standard Rating Information, Coil:Cooling:DX:SingleSpeed, ZONE RETAIL BACK_SPACE B END_B - STORY GROUND PSZ-AC 1SPD DX AC CLG COIL 47KBTU/HR 6.8EER, 13186.6, 2.00, 6.82, 7.24, 7.08
 Component Sizing Information, Coil:Heating:Fuel, ZONE RETAIL BACK_SPACE B END_B - STORY GROUND PSZ-AC GAS HTG COIL, Design Size Nominal Capacity [W], 22558.73278
 Component Sizing Information, Coil:Heating:Electric, ZONE RETAIL BACK_SPACE B END_B - STORY GROUND PSZ-AC ELECTRIC BACKUP HTG COIL, Design Size Nominal Capacity [W], 22558.73278
 Component Sizing Information, Fan:ConstantVolume, ZONE RETAIL BACK_SPACE B END_B - STORY GROUND PSZ-AC FAN, Design Size Maximum Flow Rate [m3/s], 0.83578
 Component Sizing Information, Controller:OutdoorAir, ZONE RETAIL BACK_SPACE C  - STORY GROUND PSZ-AC OA SYS CONTROLLER, Maximum Outdoor Air Flow Rate [m3/s], 6.16120E-002
 Component Sizing Information, Coil:Cooling:DX:SingleSpeed, ZONE RETAIL BACK_SPACE C  - STORY GROUND PSZ-AC 1SPD DX AC CLG COIL 4KBTU/HR 6.8EER, Design Size Rated Air Flow Rate [m3/s], 6.16120E-002
 Component Sizing Information, Coil:Cooling:DX:SingleSpeed, ZONE RETAIL BACK_SPACE C  - STORY GROUND PSZ-AC 1SPD DX AC CLG COIL 4KBTU/HR 6.8EER, Design Size Gross Rated Total Cooling Capacity [W], 1075.17426
 Component Sizing Information, Coil:Cooling:DX:SingleSpeed, ZONE RETAIL BACK_SPACE C  - STORY GROUND PSZ-AC 1SPD DX AC CLG COIL 4KBTU/HR 6.8EER, Design Size Gross Rated Sensible Heat Ratio, 0.77975
 DX Cooling Coil Standard Rating Information, Coil:Cooling:DX:SingleSpeed, ZONE RETAIL BACK_SPACE C  - STORY GROUND PSZ-AC 1SPD DX AC CLG COIL 4KBTU/HR 6.8EER, 1027.4, 1.99, 6.81, 7.23, 7.11
 Component Sizing Information, Coil:Heating:Fuel, ZONE RETAIL BACK_SPACE C  - STORY GROUND PSZ-AC GAS HTG COIL, Design Size Nominal Capacity [W], 1871.18807
 Component Sizing Information, Coil:Heating:Electric, ZONE RETAIL BACK_SPACE C  - STORY GROUND PSZ-AC ELECTRIC BACKUP HTG COIL, Design Size Nominal Capacity [W], 1871.18807
 Component Sizing Information, Fan:ConstantVolume, ZONE RETAIL BACK_SPACE C  - STORY GROUND PSZ-AC FAN, Design Size Maximum Flow Rate [m3/s], 6.16120E-002
 Component Sizing Information, Controller:OutdoorAir, ZONE RETAIL BACK_SPACE C END_B - STORY GROUND PSZ-AC OA SYS CONTROLLER, Maximum Outdoor Air Flow Rate [m3/s], 0.13096
[...]
 Component Sizing Information, Fan:ConstantVolume, ZONE RETAIL ENTRY B  - STORY GROUND PSZ-AC FAN, Design Size Maximum Flow Rate [m3/s], 0.31446
 Component Sizing Information, Controller:OutdoorAir, ZONE RETAIL ENTRY C  - STORY GROUND PSZ-AC OA SYS CONTROLLER, Maximum Outdoor Air Flow Rate [m3/s], 4.41630E-002
 Component Sizing Information, Coil:Cooling:DX:SingleSpeed, ZONE RETAIL ENTRY C  - STORY GROUND PSZ-AC 1SPD DX AC CLG COIL 3KBTU/HR 6.8EER, Design Size Rated Air Flow Rate [m3/s], 4.41630E-002
 Component Sizing Information, Coil:Cooling:DX:SingleSpeed, ZONE RETAIL ENTRY C  - STORY GROUND PSZ-AC 1SPD DX AC CLG COIL 3KBTU/HR 6.8EER, Design Size Gross Rated Total Cooling Capacity [W], 731.05465
 Component Sizing Information, Coil:Cooling:DX:SingleSpeed, ZONE RETAIL ENTRY C  - STORY GROUND PSZ-AC 1SPD DX AC CLG COIL 3KBTU/HR 6.8EER, Design Size Gross Rated Sensible Heat Ratio, 0.79866
 DX Cooling Coil Standard Rating Information, Coil:Cooling:DX:SingleSpeed, ZONE RETAIL ENTRY C  - STORY GROUND PSZ-AC 1SPD DX AC CLG COIL 3KBTU/HR 6.8EER, 696.8, 1.98, 6.75, 7.18, 7.02
 Component Sizing Information, Coil:Heating:Fuel, ZONE RETAIL ENTRY C  - STORY GROUND PSZ-AC GAS HTG COIL, Design Size Nominal Capacity [W], 1086.69915
 Component Sizing Information, Coil:Heating:Electric, ZONE RETAIL ENTRY C  - STORY GROUND PSZ-AC ELECTRIC BACKUP HTG COIL, Design Size Nominal Capacity [W], 1086.69915
 Component Sizing Information, Fan:ConstantVolume, ZONE RETAIL ENTRY C  - STORY GROUND PSZ-AC FAN, Design Size Maximum Flow Rate [m3/s], 4.41630E-002
 Component Sizing Information, Controller:OutdoorAir, ZONE RETAIL POINT_OF_SALE A  - STORY GROUND PSZ-AC OA SYS CONTROLLER, Maximum Outdoor Air Flow Rate [m3/s], 0.16154
 Component Sizing Information, Coil:Cooling:DX:SingleSpeed, ZONE RETAIL POINT_OF_SALE A  - STORY GROUND PSZ-AC 1SPD DX AC CLG COIL 10KBTU/HR 6.8EER, Design Size Rated Air Flow Rate [m3/s], 0.16154
 Component Sizing Information, Coil:Cooling:DX:SingleSpeed, ZONE RETAIL POINT_OF_SALE A  - STORY GROUND PSZ-AC 1SPD DX AC CLG COIL 10KBTU/HR 6.8EER, Design Size Gross Rated Total Cooling Capacity [W], 2894.85571
 Component Sizing Information, Coil:Cooling:DX:SingleSpeed, ZONE RETAIL POINT_OF_SALE A  - STORY GROUND PSZ-AC 1SPD DX AC CLG COIL 10KBTU/HR 6.8EER, Design Size Gross Rated Sensible Heat Ratio, 0.77062
 DX Cooling Coil Standard Rating Information, Coil:Cooling:DX:SingleSpeed, ZONE RETAIL POINT_OF_SALE A  - STORY GROUND PSZ-AC 1SPD DX AC CLG COIL 10KBTU/HR 6.8EER, 2769.5, 2.00, 6.84, 7.27, 7.15
 Component Sizing Information, Coil:Heating:Fuel, ZONE RETAIL POINT_OF_SALE A  - STORY GROUND PSZ-AC GAS HTG COIL, Design Size Nominal Capacity [W], 4616.84120
 Component Sizing Information, Coil:Heating:Electric, ZONE RETAIL POINT_OF_SALE A  - STORY GROUND PSZ-AC ELECTRIC BACKUP HTG COIL, Design Size Nominal Capacity [W], 4616.84120
 Component Sizing Information, Fan:ConstantVolume, ZONE RETAIL POINT_OF_SALE A  - STORY GROUND PSZ-AC FAN, Design Size Maximum Flow Rate [m3/s], 0.16154
 Component Sizing Information, Controller:OutdoorAir, ZONE RETAIL POINT_OF_SALE B  - STORY GROUND PSZ-AC OA SYS CONTROLLER, Maximum Outdoor Air Flow Rate [m3/s], 1.08214
 Component Sizing Information, Coil:Cooling:DX:SingleSpeed, ZONE RETAIL POINT_OF_SALE B  - STORY GROUND PSZ-AC 1SPD DX AC CLG COIL 63KBTU/HR 6.8EER, Design Size Rated Air Flow Rate [m3/s], 1.08214
 Component Sizing Information, Coil:Cooling:DX:SingleSpeed, ZONE RETAIL POINT_OF_SALE B  - STORY GROUND PSZ-AC 1SPD DX AC CLG COIL 63KBTU/HR 6.8EER, Design Size Gross Rated Total Cooling Capacity [W], 17913.18157
 Component Sizing Information, Coil:Cooling:DX:SingleSpeed, ZONE RETAIL POINT_OF_SALE B  - STORY GROUND PSZ-AC 1SPD DX AC CLG COIL 63KBTU/HR 6.8EER, Design Size Gross Rated Sensible Heat Ratio, 0.79866
 DX Cooling Coil Standard Rating Information, Coil:Cooling:DX:SingleSpeed, ZONE RETAIL POINT_OF_SALE B  - STORY GROUND PSZ-AC 1SPD DX AC CLG COIL 63KBTU/HR 6.8EER, 17073.5, 2.00, 6.84, 7.27, 7.11
 Component Sizing Information, Coil:Heating:Fuel, ZONE RETAIL POINT_OF_SALE B  - STORY GROUND PSZ-AC GAS HTG COIL, Design Size Nominal Capacity [W], 51329.70552
 Component Sizing Information, Coil:Heating:Electric, ZONE RETAIL POINT_OF_SALE B  - STORY GROUND PSZ-AC ELECTRIC BACKUP HTG COIL, Design Size Nominal Capacity [W], 51329.70552
 Component Sizing Information, Fan:ConstantVolume, ZONE RETAIL POINT_OF_SALE B  - STORY GROUND PSZ-AC FAN, Design Size Maximum Flow Rate [m3/s], 1.08214
 Component Sizing Information, Controller:OutdoorAir, ZONE RETAIL POINT_OF_SALE C  - STORY GROUND PSZ-AC OA SYS CONTROLLER, Maximum Outdoor Air Flow Rate [m3/s], 0.16391
 Component Sizing Information, Coil:Cooling:DX:SingleSpeed, ZONE RETAIL POINT_OF_SALE C  - STORY GROUND PSZ-AC 1SPD DX AC CLG COIL 9KBTU/HR 6.8EER, Design Size Rated Air Flow Rate [m3/s], 0.16391
 Component Sizing Information, Coil:Cooling:DX:SingleSpeed, ZONE RETAIL POINT_OF_SALE C  - STORY GROUND PSZ-AC 1SPD DX AC CLG COIL 9KBTU/HR 6.8EER, Design Size Gross Rated Total Cooling Capacity [W], 2713.26499
 Component Sizing Information, Coil:Cooling:DX:SingleSpeed, ZONE RETAIL POINT_OF_SALE C  - STORY GROUND PSZ-AC 1SPD DX AC CLG COIL 9KBTU/HR 6.8EER, Design Size Gross Rated Sensible Heat Ratio, 0.79866
 DX Cooling Coil Standard Rating Information, Coil:Cooling:DX:SingleSpeed, ZONE RETAIL POINT_OF_SALE C  - STORY GROUND PSZ-AC 1SPD DX AC CLG COIL 9KBTU/HR 6.8EER, 2586.1, 1.98, 6.76, 7.19, 7.03
 Component Sizing Information, Coil:Heating:Fuel, ZONE RETAIL POINT_OF_SALE C  - STORY GROUND PSZ-AC GAS HTG COIL, Design Size Nominal Capacity [W], 4671.22962
 Component Sizing Information, Coil:Heating:Electric, ZONE RETAIL POINT_OF_SALE C  - STORY GROUND PSZ-AC ELECTRIC BACKUP HTG COIL, Design Size Nominal Capacity [W], 4671.22962
 Component Sizing Information, Fan:ConstantVolume, ZONE RETAIL POINT_OF_SALE C  - STORY GROUND PSZ-AC FAN, Design Size Maximum Flow Rate [m3/s], 0.16391
 Component Sizing Information, Controller:OutdoorAir, ZONE RETAIL RETAIL A  - STORY GROUND PSZ-AC OA SYS CONTROLLER, Maximum Outdoor Air Flow Rate [m3/s], 1.32477
 Component Sizing Information, Coil:Cooling:DX:SingleSpeed, ZONE RETAIL RETAIL A  - STORY GROUND PSZ-AC 1SPD DX AC CLG COIL 103KBTU/HR 6.8EER, Design Size Rated Air Flow Rate [m3/s], 1.32477
 Component Sizing Information, Coil:Cooling:DX:SingleSpeed, ZONE RETAIL RETAIL A  - STORY GROUND PSZ-AC 1SPD DX AC CLG COIL 103KBTU/HR 6.8EER, Design Size Gross Rated Total Cooling Capacity [W], 24575.93714
 Component Sizing Information, Coil:Cooling:DX:SingleSpeed, ZONE RETAIL RETAIL A  - STORY GROUND PSZ-AC 1SPD DX AC CLG COIL 103KBTU/HR 6.8EER, Design Size Gross Rated Sensible Heat Ratio, 0.75907
 DX Cooling Coil Standard Rating Information, Coil:Cooling:DX:SingleSpeed, ZONE RETAIL RETAIL A  - STORY GROUND PSZ-AC 1SPD DX AC CLG COIL 103KBTU/HR 6.8EER, 23547.5, 2.05, 7.01, 7.45, 7.33
 Component Sizing Information, Coil:Heating:Fuel, ZONE RETAIL RETAIL A  - STORY GROUND PSZ-AC GAS HTG COIL, Design Size Nominal Capacity [W], 39800.04227
 Component Sizing Information, Coil:Heating:Electric, ZONE RETAIL RETAIL A  - STORY GROUND PSZ-AC ELECTRIC BACKUP HTG COIL, Design Size Nominal Capacity [W], 39800.04227
 Component Sizing Information, Fan:ConstantVolume, ZONE RETAIL RETAIL A  - STORY GROUND PSZ-AC FAN, Design Size Maximum Flow Rate [m3/s], 1.32477
 Component Sizing Information, Controller:OutdoorAir, ZONE RETAIL RETAIL A END_A - STORY GROUND PSZ-AC OA SYS CONTROLLER, Maximum Outdoor Air Flow Rate [m3/s], 0.22193
 Component Sizing Information, Coil:Cooling:DX:SingleSpeed, ZONE RETAIL RETAIL A END_A - STORY GROUND PSZ-AC 1SPD DX AC CLG COIL 17KBTU/HR 6.8EER, Design Size Rated Air Flow Rate [m3/s], 0.22193
 Component Sizing Information, Coil:Cooling:DX:SingleSpeed, ZONE RETAIL RETAIL A END_A - STORY GROUND PSZ-AC 1SPD DX AC CLG COIL 17KBTU/HR 6.8EER, Design Size Gross Rated Total Cooling Capacity [W], 3891.80987
 Component Sizing Information, Coil:Cooling:DX:SingleSpeed, ZONE RETAIL RETAIL A END_A - STORY GROUND PSZ-AC 1SPD DX AC CLG COIL 17KBTU/HR 6.8EER, Design Size Gross Rated Sensible Heat Ratio, 0.77805
 DX Cooling Coil Standard Rating Information, Coil:Cooling:DX:SingleSpeed, ZONE RETAIL RETAIL A END_A - STORY GROUND PSZ-AC 1SPD DX AC CLG COIL 17KBTU/HR 6.8EER, 3719.6, 2.00, 6.83, 7.26, 7.13
 Component Sizing Information, Coil:Heating:Fuel, ZONE RETAIL RETAIL A END_A - STORY GROUND PSZ-AC GAS HTG COIL, Design Size Nominal Capacity [W], 6253.75335
 Component Sizing Information, Coil:Heating:Electric, ZONE RETAIL RETAIL A END_A - STORY GROUND PSZ-AC ELECTRIC BACKUP HTG COIL, Design Size Nominal Capacity [W], 6253.75335
 Component Sizing Information, Fan:ConstantVolume, ZONE RETAIL RETAIL A END_A - STORY GROUND PSZ-AC FAN, Design Size Maximum Flow Rate [m3/s], 0.22193
 Component Sizing Information, Controller:OutdoorAir, ZONE RETAIL RETAIL B  - STORY GROUND PSZ-AC OA SYS CONTROLLER, Maximum Outdoor Air Flow Rate [m3/s], 9.13311
 Component Sizing Information, Coil:Cooling:DX:SingleSpeed, ZONE RETAIL RETAIL B  - STORY GROUND PSZ-AC 1SPD DX AC CLG COIL 626KBTU/HR 6.8EER, Design Size Rated Air Flow Rate [m3/s], 9.13311
 Component Sizing Information, Coil:Cooling:DX:SingleSpeed, ZONE RETAIL RETAIL B  - STORY GROUND PSZ-AC 1SPD DX AC CLG COIL 626KBTU/HR 6.8EER, Design Size Gross Rated Total Cooling Capacity [W], 181772.83895
 Component Sizing Information, Coil:Cooling:DX:SingleSpeed, ZONE RETAIL RETAIL B  - STORY GROUND PSZ-AC 1SPD DX AC CLG COIL 626KBTU/HR 6.8EER, Design Size Gross Rated Sensible Heat Ratio, 0.73679
 DX Cooling Coil Standard Rating Information, Coil:Cooling:DX:SingleSpeed, ZONE RETAIL RETAIL B  - STORY GROUND PSZ-AC 1SPD DX AC CLG COIL 626KBTU/HR 6.8EER, 174680.9, 2.29, 7.83, 8.32, 8.17
 Component Sizing Information, Coil:Heating:Fuel, ZONE RETAIL RETAIL B  - STORY GROUND PSZ-AC GAS HTG COIL, Design Size Nominal Capacity [W], 431234.17929
 Component Sizing Information, Coil:Heating:Electric, ZONE RETAIL RETAIL B  - STORY GROUND PSZ-AC ELECTRIC BACKUP HTG COIL, Design Size Nominal Capacity [W], 431234.17929
 Component Sizing Information, Fan:ConstantVolume, ZONE RETAIL RETAIL B  - STORY GROUND PSZ-AC FAN, Design Size Maximum Flow Rate [m3/s], 9.13311
 Component Sizing Information, Controller:OutdoorAir, ZONE RETAIL RETAIL B END_A - STORY GROUND PSZ-AC OA SYS CONTROLLER, Maximum Outdoor Air Flow Rate [m3/s], 1.21443
 Component Sizing Information, Coil:Cooling:DX:SingleSpeed, ZONE RETAIL RETAIL B END_A - STORY GROUND PSZ-AC 1SPD DX AC CLG COIL 101KBTU/HR 6.8EER, Design Size Rated Air Flow Rate [m3/s], 1.21443
 Component Sizing Information, Coil:Cooling:DX:SingleSpeed, ZONE RETAIL RETAIL B END_A - STORY GROUND PSZ-AC 1SPD DX AC CLG COIL 101KBTU/HR 6.8EER, Design Size Gross Rated Total Cooling Capacity [W], 21692.72553
 Component Sizing Information, Coil:Cooling:DX:SingleSpeed, ZONE RETAIL RETAIL B END_A - STORY GROUND PSZ-AC 1SPD DX AC CLG COIL 101KBTU/HR 6.8EER, Design Size Gross Rated Sensible Heat Ratio, 0.77172
 DX Cooling Coil Standard Rating Information, Coil:Cooling:DX:SingleSpeed, ZONE RETAIL RETAIL B END_A - STORY GROUND PSZ-AC 1SPD DX AC CLG COIL 101KBTU/HR 6.8EER, 20750.1, 2.04, 6.97, 7.40, 7.27
 Component Sizing Information, Coil:Heating:Fuel, ZONE RETAIL RETAIL B END_A - STORY GROUND PSZ-AC GAS HTG COIL, Design Size Nominal Capacity [W], 36191.06933
 Component Sizing Information, Coil:Heating:Electric, ZONE RETAIL RETAIL B END_A - STORY GROUND PSZ-AC ELECTRIC BACKUP HTG COIL, Design Size Nominal Capacity [W], 36191.06933
 Component Sizing Information, Fan:ConstantVolume, ZONE RETAIL RETAIL B END_A - STORY GROUND PSZ-AC FAN, Design Size Maximum Flow Rate [m3/s], 1.21443
 Component Sizing Information, Controller:OutdoorAir, ZONE RETAIL RETAIL C  - STORY GROUND PSZ-AC OA SYS CONTROLLER, Maximum Outdoor Air Flow Rate [m3/s], 1.31063
 Component Sizing Information, Coil:Cooling:DX:SingleSpeed, ZONE RETAIL RETAIL C  - STORY GROUND PSZ-AC 1SPD DX AC CLG COIL 97KBTU/HR 6.8EER, Design Size Rated Air Flow Rate [m3/s], 1.31063
 Component Sizing Information, Coil:Cooling:DX:SingleSpeed, ZONE RETAIL RETAIL C  - STORY GROUND PSZ-AC 1SPD DX AC CLG COIL 97KBTU/HR 6.8EER, Design Size Gross Rated Total Cooling Capacity [W], 24881.97575
 Component Sizing Information, Coil:Cooling:DX:SingleSpeed, ZONE RETAIL RETAIL C  - STORY GROUND PSZ-AC 1SPD DX AC CLG COIL 97KBTU/HR 6.8EER, Design Size Gross Rated Sensible Heat Ratio, 0.75157
 DX Cooling Coil Standard Rating Information, Coil:Cooling:DX:SingleSpeed, ZONE RETAIL RETAIL C  - STORY GROUND PSZ-AC 1SPD DX AC CLG COIL 97KBTU/HR 6.8EER, 23864.5, 2.06, 7.02, 7.46, 7.36
 Component Sizing Information, Coil:Heating:Fuel, ZONE RETAIL RETAIL C  - STORY GROUND PSZ-AC GAS HTG COIL, Design Size Nominal Capacity [W], 39474.90985
 Component Sizing Information, Coil:Heating:Electric, ZONE RETAIL RETAIL C  - STORY GROUND PSZ-AC ELECTRIC BACKUP HTG COIL, Design Size Nominal Capacity [W], 39474.90985
 Component Sizing Information, Fan:ConstantVolume, ZONE RETAIL RETAIL C  - STORY GROUND PSZ-AC FAN, Design Size Maximum Flow Rate [m3/s], 1.31063
 Component Sizing Information, Controller:OutdoorAir, ZONE RETAIL RETAIL C END_A - STORY GROUND PSZ-AC OA SYS CONTROLLER, Maximum Outdoor Air Flow Rate [m3/s], 0.19338
 Component Sizing Information, Coil:Cooling:DX:SingleSpeed, ZONE RETAIL RETAIL C END_A - STORY GROUND PSZ-AC 1SPD DX AC CLG COIL 15KBTU/HR 6.8EER, Design Size Rated Air Flow Rate [m3/s], 0.19338
 Component Sizing Information, Coil:Cooling:DX:SingleSpeed, ZONE RETAIL RETAIL C END_A - STORY GROUND PSZ-AC 1SPD DX AC CLG COIL 15KBTU/HR 6.8EER, Design Size Gross Rated Total Cooling Capacity [W], 3410.74120
 Component Sizing Information, Coil:Cooling:DX:SingleSpeed, ZONE RETAIL RETAIL C END_A - STORY GROUND PSZ-AC 1SPD DX AC CLG COIL 15KBTU/HR 6.8EER, Design Size Gross Rated Sensible Heat Ratio, 0.77606
 DX Cooling Coil Standard Rating Information, Coil:Cooling:DX:SingleSpeed, ZONE RETAIL RETAIL C END_A - STORY GROUND PSZ-AC 1SPD DX AC CLG COIL 15KBTU/HR 6.8EER, 3260.6, 2.00, 6.83, 7.26, 7.14
 Component Sizing Information, Coil:Heating:Fuel, ZONE RETAIL RETAIL C END_A - STORY GROUND PSZ-AC GAS HTG COIL, Design Size Nominal Capacity [W], 5597.37394
 Component Sizing Information, Coil:Heating:Electric, ZONE RETAIL RETAIL C END_A - STORY GROUND PSZ-AC ELECTRIC BACKUP HTG COIL, Design Size Nominal Capacity [W], 5597.37394
 Component Sizing Information, Fan:ConstantVolume, ZONE RETAIL RETAIL C END_A - STORY GROUND PSZ-AC FAN, Design Size Maximum Flow Rate [m3/s], 0.19338
Water Heater Information,WaterHeater:Mixed,40.0GAL GAS WATER HEATER - 15KBTU/HR 0.78 THERM EFF 0.78 THERM EFF,0.1514,4478.4,0.802,0.5829
 Component Sizing Information, PlantLoop, RETAIL SHARED SERVICE WATER LOOP, Maximum Loop Flow Rate [m3/s], 2.46824E-005
 Component Sizing Information, PlantLoop, RETAIL SHARED SERVICE WATER LOOP, Plant Loop Volume [m3], 2.96189E-003
 Component Sizing Information, Pump:ConstantSpeed, SERVICE WATER LOOP PUMP, Design Flow Rate [m3/s], 2.46824E-005
 Component Sizing Information, Pump:ConstantSpeed, SERVICE WATER LOOP PUMP, Design Power Consumption [W], 3.83565E-007
 Component Sizing Information, WaterHeater:Mixed, 40.0GAL GAS WATER HEATER - 15KBTU/HR 0.78 THERM EFF 0.78 THERM EFF, Use Side Design Flow Rate [m3/s], 2.46824E-005
! <Environment>,Environment Name,Environment Type, Start Date, End Date, Start DayOfWeek, Duration {#days}, Source:Start DayOfWeek,  Use Daylight Saving, Use Holidays, Apply Weekend Holiday Rule,  Use Rain Values, Use Snow Values
! <Environment:Special Days>, Special Day Name, Special Day Type, Source, Start Date, Duration {#days}
! <Environment:Daylight Saving>, Daylight Saving Indicator, Source, Start Date, End Date
! <Environment:WarmupDays>, NumberofWarmupDays
Environment,RUN PERIOD 1,WeatherFileRunPeriod,01/01,12/31,Thursday,365,Use RunPeriod Specified Day,No,No,No,Yes,Yes
Environment:Daylight Saving,No,RunPeriod Object
Environment:WarmupDays,  6
! <Tabular Report>,Style,Unit Conversion
Tabular Report,HTML,None
! <Warmup Convergence Information>,Zone Name,Environment Type/Name,Average Warmup Temperature Difference {deltaC},Std Dev Warmup Temperature Difference {deltaC},Max Temperature Pass/Fail Convergence,Min Temperature Pass/Fail Convergence,Average Warmup Load Difference {W},Std Dev Warmup Load Difference {W},Heating Load Pass/Fail Convergence,Cooling Load Pass/Fail Convergence
 Warmup Convergence Information,ZONE RETAIL BACK_SPACE A  - STORY GROUND,RunPeriod: RUN PERIOD 1,0.1750114062,0.5241669584,Pass,Pass,0.2681970523,0.5443027285,Pass,Pass
 Warmup Convergence Information,ZONE RETAIL BACK_SPACE A END_B - STORY GROUND,RunPeriod: RUN PERIOD 1,0.1750257405,0.5836825810,Pass,Pass,0.6263144440,3.8560962790,Pass,Pass
 Warmup Convergence Information,ZONE RETAIL BACK_SPACE B  - STORY GROUND,RunPeriod: RUN PERIOD 1,0.1743637887,0.4527250903,Pass,Pass,0.1125912620,0.2729984118,Pass,Pass
 Warmup Convergence Information,ZONE RETAIL BACK_SPACE B END_B - STORY GROUND,RunPeriod: RUN PERIOD 1,0.3168883689,0.6717806194,Pass,Pass,0.3463021050,0.5164706086,Pass,Pass
 Warmup Convergence Information,ZONE RETAIL BACK_SPACE C  - STORY GROUND,RunPeriod: RUN PERIOD 1,0.1246087125,0.4697080843,Pass,Pass,0.2481672902,0.6626925310,Pass,Pass
 Warmup Convergence Information,ZONE RETAIL BACK_SPACE C END_B - STORY GROUND,RunPeriod: RUN PERIOD 1,0.1240900234,0.5746798046,Pass,Pass,0.6317852772,3.3263515930,Pass,Pass
 Warmup Convergence Information,ZONE RETAIL ENTRY A  - STORY GROUND,RunPeriod: RUN PERIOD 1,0.2589400342,0.5443102511,Pass,Pass,8.3620412670,76.7493076624,Pass,Pass
 Warmup Convergence Information,ZONE RETAIL ENTRY B  - STORY GROUND,RunPeriod: RUN PERIOD 1,0.1625509488,0.3519120927,Pass,Pass,5.6296963972,28.2275479794,Pass,Pass
 Warmup Convergence Information,ZONE RETAIL ENTRY C  - STORY GROUND,RunPeriod: RUN PERIOD 1,0.1842140762,0.5423085250,Pass,Pass,0.7073320321,2.1951863279,Pass,Pass
 Warmup Convergence Information,ZONE RETAIL POINT_OF_SALE A  - STORY GROUND,RunPeriod: RUN PERIOD 1,0.1750363512,0.5484971030,Pass,Pass,0.4397861963,2.4833737463,Pass,Pass
 Warmup Convergence Information,ZONE RETAIL POINT_OF_SALE B  - STORY GROUND,RunPeriod: RUN PERIOD 1,0.1642343227,0.3635229773,Pass,Pass,8.6298175402E-002,0.3389074205,Pass,Pass
 Warmup Convergence Information,ZONE RETAIL POINT_OF_SALE C  - STORY GROUND,RunPeriod: RUN PERIOD 1,0.1755126132,0.5488617659,Pass,Pass,0.1979005409,0.4845171653,Pass,Pass
 Warmup Convergence Information,ZONE RETAIL RETAIL A  - STORY GROUND,RunPeriod: RUN PERIOD 1,0.3043236860,0.6289162589,Pass,Pass,0.3244663262,0.5784582874,Pass,Pass
 Warmup Convergence Information,ZONE RETAIL RETAIL A END_A - STORY GROUND,RunPeriod: RUN PERIOD 1,0.1750382774,0.6017351200,Pass,Pass,0.2219499439,0.5495021832,Pass,Pass
 Warmup Convergence Information,ZONE RETAIL RETAIL B  - STORY GROUND,RunPeriod: RUN PERIOD 1,0.1684238400,0.4214259487,Pass,Pass,4.5450083026E-002,0.1431455476,Pass,Pass
 Warmup Convergence Information,ZONE RETAIL RETAIL B END_A - STORY GROUND,RunPeriod: RUN PERIOD 1,0.3064123312,0.6320406418,Pass,Pass,0.3452001241,0.5590687010,Pass,Pass
 Warmup Convergence Information,ZONE RETAIL RETAIL C  - STORY GROUND,RunPeriod: RUN PERIOD 1,0.3064374053,0.6299692302,Pass,Pass,0.3082889748,0.5120606351,Pass,Pass
 Warmup Convergence Information,ZONE RETAIL RETAIL C END_A - STORY GROUND,RunPeriod: RUN PERIOD 1,0.1793481560,0.5974246513,Pass,Pass,0.3928093474,1.8648489050,Pass,Pass
! <Program Control Information:Threads/Parallel Sims>, Threading Supported,Maximum Number of Threads, Env Set Threads (OMP_NUM_THREADS), EP Env Set Threads (EP_OMP_NUM_THREADS), IDF Set Threads, Number of Threads Used (Interior Radiant Exchange), Number Nominal Surfaces, Number Parallel Sims
Program Control:Threads/Parallel Sims, No,1, N/A, N/A, N/A, N/A, N/A, N/A
End of Data
