Program Version,EnergyPlus, Version 8.7.0-78a111df4a, YMD=2018.03.01 18:55,IDD_Version 8.7.0
   ************* Beginning Zone Sizing Calculations
   ** Warning ** ProcessScheduleInput: Schedule:Day:Interval="0.05 FRACTION DEFAULT", Blank Schedule Type Limits Name input -- will not be validated.
   ** Warning ** ProcessScheduleInput: Schedule:Day:Interval="0.2 FRACTION DEFAULT", Blank Schedule Type Limits Name input -- will not be validated.
   ** Warning ** ProcessScheduleInput: Schedule:Day:Interval="43.3 C DEFAULT", Blank Schedule Type Limits Name input -- will not be validated.
   ** Warning ** ProcessScheduleInput: Schedule:Day:Interval="ECONOMIZER MAX OA FRACTION 70 PCT DEFAULT", Blank Schedule Type Limits Name input -- will not be validated.
   ** Warning ** ProcessScheduleInput: Schedule:Day:Interval="RETAILSTANDALONE PSZ_ECON_MAXOAFRAC_SCH DEFAULT", Blank Schedule Type Limits Name input -- will not be validated.
   ** Warning ** ProcessScheduleInput: Schedule:Day:Interval="RETAILSTANDALONE PSZ_ECON_MAXOAFRAC_SCH SUMMER DESIGN DAY", Blank Schedule Type Limits Name input -- will not be validated.
   ** Warning ** ProcessScheduleInput: Schedule:Day:Interval="RETAILSTANDALONE PSZ_ECON_MAXOAFRAC_SCH WINTER DESIGN DAY", Blank Schedule Type Limits Name input -- will not be validated.
   ** Warning ** ProcessScheduleInput: Schedule:Day:Interval="SCHEDULE DAY 1", Blank Schedule Type Limits Name input -- will not be validated.
   ** Warning ** ProcessScheduleInput: Schedule:Day:Interval="SCHEDULE DAY 10", Blank Schedule Type Limits Name input -- will not be validated.
   ** Warning ** ProcessScheduleInput: Schedule:Day:Interval="SCHEDULE DAY 11", Blank Schedule Type Limits Name input -- will not be validated.
   ** Warning ** ProcessScheduleInput: Schedule:Day:Interval="SCHEDULE DAY 12", Blank Schedule Type Limits Name input -- will not be validated.
   ** Warning ** ProcessScheduleInput: Schedule:Day:Interval="SCHEDULE DAY 13", Blank Schedule Type Limits Name input -- will not be validated.
   ** Warning ** ProcessScheduleInput: Schedule:Day:Interval="SCHEDULE DAY 16", Blank Schedule Type Limits Name input -- will not be validated.
   ** Warning ** ProcessScheduleInput: Schedule:Day:Interval="SCHEDULE DAY 17", Blank Schedule Type Limits Name input -- will not be validated.
   ** Warning ** ProcessScheduleInput: Schedule:Day:Interval="SCHEDULE DAY 18", Blank Schedule Type Limits Name input -- will not be validated.
   ** Warning ** ProcessScheduleInput: Schedule:Day:Interval="SCHEDULE DAY 19", Blank Schedule Type Limits Name input -- will not be validated.
   ** Warning ** ProcessScheduleInput: Schedule:Day:Interval="SCHEDULE DAY 2", Blank Schedule Type Limits Name input -- will not be validated.
   ** Warning ** ProcessScheduleInput: Schedule:Day:Interval="SCHEDULE DAY 20", Blank Schedule Type Limits Name input -- will not be validated.
   ** Warning ** ProcessScheduleInput: Schedule:Day:Interval="SCHEDULE DAY 21", Blank Schedule Type Limits Name input -- will not be validated.
   ** Warning ** ProcessScheduleInput: Schedule:Day:Interval="SCHEDULE DAY 22", Blank Schedule Type Limits Name input -- will not be validated.
   ** Warning ** ProcessScheduleInput: Schedule:Day:Interval="SCHEDULE DAY 23", Blank Schedule Type Limits Name input -- will not be validated.
   ** Warning ** ProcessScheduleInput: Schedule:Day:Interval="SCHEDULE DAY 24", Blank Schedule Type Limits Name input -- will not be validated.
   ** Warning ** ProcessScheduleInput: Schedule:Day:Interval="SCHEDULE DAY 25", Blank Schedule Type Limits Name input -- will not be validated.
   ** Warning ** ProcessScheduleInput: Schedule:Day:Interval="SCHEDULE DAY 26", Blank Schedule Type Limits Name input -- will not be validated.
   ** Warning ** ProcessScheduleInput: Schedule:Day:Interval="SCHEDULE DAY 27", Blank Schedule Type Limits Name input -- will not be validated.
   ** Warning ** ProcessScheduleInput: Schedule:Day:Interval="SCHEDULE DAY 28", Blank Schedule Type Limits Name input -- will not be validated.
   ** Warning ** ProcessScheduleInput: Schedule:Day:Interval="SCHEDULE DAY 29", Blank Schedule Type Limits Name input -- will not be validated.
   ** Warning ** ProcessScheduleInput: Schedule:Day:Interval="SCHEDULE DAY 3", Blank Schedule Type Limits Name input -- will not be validated.
   ** Warning ** ProcessScheduleInput: Schedule:Day:Interval="SCHEDULE DAY 30", Blank Schedule Type Limits Name input -- will not be validated.
   ** Warning ** ProcessScheduleInput: Schedule:Day:Interval="SCHEDULE DAY 31", Blank Schedule Type Limits Name input -- will not be validated.
   ** Warning ** ProcessScheduleInput: Schedule:Day:Interval="SCHEDULE DAY 32", Blank Schedule Type Limits Name input -- will not be validated.
   ** Warning ** ProcessScheduleInput: Schedule:Day:Interval="SCHEDULE DAY 33", Blank Schedule Type Limits Name input -- will not be validated.
   ** Warning ** ProcessScheduleInput: Schedule:Day:Interval="SCHEDULE DAY 34", Blank Schedule Type Limits Name input -- will not be validated.
   ** Warning ** ProcessScheduleInput: Schedule:Day:Interval="SCHEDULE DAY 35", Blank Schedule Type Limits Name input -- will not be validated.
   ** Warning ** ProcessScheduleInput: Schedule:Day:Interval="SCHEDULE DAY 36", Blank Schedule Type Limits Name input -- will not be validated.
   ** Warning ** ProcessScheduleInput: Schedule:Day:Interval="SCHEDULE DAY 37", Blank Schedule Type Limits Name input -- will not be validated.
   ** Warning ** ProcessScheduleInput: Schedule:Day:Interval="SCHEDULE DAY 4", Blank Schedule Type Limits Name input -- will not be validated.
   ** Warning ** ProcessScheduleInput: Schedule:Day:Interval="SCHEDULE DAY 6", Blank Schedule Type Limits Name input -- will not be validated.
   ** Warning ** ProcessScheduleInput: Schedule:Day:Interval="SCHEDULE DAY 7", Blank Schedule Type Limits Name input -- will not be validated.
   ** Warning ** ProcessScheduleInput: Schedule:Day:Interval="SCHEDULE DAY 8", Blank Schedule Type Limits Name input -- will not be validated.
   ** Warning ** ProcessScheduleInput: Schedule:Day:Interval="SCHEDULE DAY 9", Blank Schedule Type Limits Name input -- will not be validated.
   ** Warning ** ProcessScheduleInput: Schedule:Day:Interval="ZONE RETAIL BACK_SPACE B  - STORY GROUND PSZ-AC OCC SCH DEFAULT", Blank Schedule Type Limits Name input -- will not be validated.
   ** Warning ** ProcessScheduleInput: Schedule:Day:Interval="ZONE RETAIL BACK_SPACE B  - STORY GROUND PSZ-AC OCC SCH FRIDAY", Blank Schedule Type Limits Name input -- will not be validated.
   ** Warning ** ProcessScheduleInput: Schedule:Day:Interval="ZONE RETAIL BACK_SPACE B  - STORY GROUND PSZ-AC OCC SCH MONDAY", Blank Schedule Type Limits Name input -- will not be validated.
   ** Warning ** ProcessScheduleInput: Schedule:Day:Interval="ZONE RETAIL BACK_SPACE B  - STORY GROUND PSZ-AC OCC SCH SATURDAY", Blank Schedule Type Limits Name input -- will not be validated.
   ** Warning ** ProcessScheduleInput: Schedule:Day:Interval="ZONE RETAIL BACK_SPACE B  - STORY GROUND PSZ-AC OCC SCH SUMMER DESIGN DAY", Blank Schedule Type Limits Name input -- will not be validated.
   ** Warning ** ProcessScheduleInput: Schedule:Day:Interval="ZONE RETAIL BACK_SPACE B  - STORY GROUND PSZ-AC OCC SCH SUNDAY", Blank Schedule Type Limits Name input -- will not be validated.
   ** Warning ** ProcessScheduleInput: Schedule:Day:Interval="ZONE RETAIL BACK_SPACE B  - STORY GROUND PSZ-AC OCC SCH THURSDAY", Blank Schedule Type Limits Name input -- will not be validated.
   ** Warning ** ProcessScheduleInput: Schedule:Day:Interval="ZONE RETAIL BACK_SPACE B  - STORY GROUND PSZ-AC OCC SCH TUESDAY", Blank Schedule Type Limits Name input -- will not be validated.
   ** Warning ** ProcessScheduleInput: Schedule:Day:Interval="ZONE RETAIL BACK_SPACE B  - STORY GROUND PSZ-AC OCC SCH WEDNESDAY", Blank Schedule Type Limits Name input -- will not be validated.
   ** Warning ** ProcessScheduleInput: Schedule:Day:Interval="ZONE RETAIL BACK_SPACE B  - STORY GROUND PSZ-AC OCC SCH WINTER DESIGN DAY", Blank Schedule Type Limits Name input -- will not be validated.
   ** Warning ** ProcessScheduleInput: Schedule:Day:Interval="ZONE RETAIL BACK_SPACE B END_B - STORY GROUND PSZ-AC OCC SCH DEFAULT", Blank Schedule Type Limits Name input -- will not be validated.
   ** Warning ** ProcessScheduleInput: Schedule:Day:Interval="ZONE RETAIL BACK_SPACE B END_B - STORY GROUND PSZ-AC OCC SCH FRIDAY", Blank Schedule Type Limits Name input -- will not be validated.
   ** Warning ** ProcessScheduleInput: Schedule:Day:Interval="ZONE RETAIL BACK_SPACE B END_B - STORY GROUND PSZ-AC OCC SCH MONDAY", Blank Schedule Type Limits Name input -- will not be validated.
   ** Warning ** ProcessScheduleInput: Schedule:Day:Interval="ZONE RETAIL BACK_SPACE B END_B - STORY GROUND PSZ-AC OCC SCH SATURDAY", Blank Schedule Type Limits Name input -- will not be validated.
   ** Warning ** ProcessScheduleInput: Schedule:Day:Interval="ZONE RETAIL BACK_SPACE B END_B - STORY GROUND PSZ-AC OCC SCH SUMMER DESIGN DAY", Blank Schedule Type Limits Name input -- will not be validated.
   ** Warning ** ProcessScheduleInput: Schedule:Day:Interval="ZONE RETAIL BACK_SPACE B END_B - STORY GROUND PSZ-AC OCC SCH SUNDAY", Blank Schedule Type Limits Name input -- will not be validated.
   ** Warning ** ProcessScheduleInput: Schedule:Day:Interval="ZONE RETAIL BACK_SPACE B END_B - STORY GROUND PSZ-AC OCC SCH THURSDAY", Blank Schedule Type Limits Name input -- will not be validated.
   ** Warning ** ProcessScheduleInput: Schedule:Day:Interval="ZONE RETAIL BACK_SPACE B END_B - STORY GROUND PSZ-AC OCC SCH TUESDAY", Blank Schedule Type Limits Name input -- will not be validated.
   ** Warning ** ProcessScheduleInput: Schedule:Day:Interval="ZONE RETAIL BACK_SPACE B END_B - STORY GROUND PSZ-AC OCC SCH WEDNESDAY", Blank Schedule Type Limits Name input -- will not be validated.
   ** Warning ** ProcessScheduleInput: Schedule:Day:Interval="ZONE RETAIL BACK_SPACE B END_B - STORY GROUND PSZ-AC OCC SCH WINTER DESIGN DAY", Blank Schedule Type Limits Name input -- will not be validated.
   ** Warning ** ProcessScheduleInput: Schedule:Day:Interval="ZONE RETAIL POINT_OF_SALE B  - STORY GROUND PSZ-AC OCC SCH DEFAULT", Blank Schedule Type Limits Name input -- will not be validated.
   ** Warning ** ProcessScheduleInput: Schedule:Day:Interval="ZONE RETAIL POINT_OF_SALE B  - STORY GROUND PSZ-AC OCC SCH FRIDAY", Blank Schedule Type Limits Name input -- will not be validated.
   ** Warning ** ProcessScheduleInput: Schedule:Day:Interval="ZONE RETAIL POINT_OF_SALE B  - STORY GROUND PSZ-AC OCC SCH MONDAY", Blank Schedule Type Limits Name input -- will not be validated.
   ** Warning ** ProcessScheduleInput: Schedule:Day:Interval="ZONE RETAIL POINT_OF_SALE B  - STORY GROUND PSZ-AC OCC SCH SATURDAY", Blank Schedule Type Limits Name input -- will not be validated.
   ** Warning ** ProcessScheduleInput: Schedule:Day:Interval="ZONE RETAIL POINT_OF_SALE B  - STORY GROUND PSZ-AC OCC SCH SUMMER DESIGN DAY", Blank Schedule Type Limits Name input -- will not be validated.
   ** Warning ** ProcessScheduleInput: Schedule:Day:Interval="ZONE RETAIL POINT_OF_SALE B  - STORY GROUND PSZ-AC OCC SCH SUNDAY", Blank Schedule Type Limits Name input -- will not be validated.
   ** Warning ** ProcessScheduleInput: Schedule:Day:Interval="ZONE RETAIL POINT_OF_SALE B  - STORY GROUND PSZ-AC OCC SCH THURSDAY", Blank Schedule Type Limits Name input -- will not be validated.
   ** Warning ** ProcessScheduleInput: Schedule:Day:Interval="ZONE RETAIL POINT_OF_SALE B  - STORY GROUND PSZ-AC OCC SCH TUESDAY", Blank Schedule Type Limits Name input -- will not be validated.
   ** Warning ** ProcessScheduleInput: Schedule:Day:Interval="ZONE RETAIL POINT_OF_SALE B  - STORY GROUND PSZ-AC OCC SCH WEDNESDAY", Blank Schedule Type Limits Name input -- will not be validated.
   ** Warning ** ProcessScheduleInput: Schedule:Day:Interval="ZONE RETAIL POINT_OF_SALE B  - STORY GROUND PSZ-AC OCC SCH WINTER DESIGN DAY", Blank Schedule Type Limits Name input -- will not be validated.
   ** Warning ** ProcessScheduleInput: Schedule:Day:Interval="ZONE RETAIL RETAIL A  - STORY GROUND PSZ-AC OCC SCH DEFAULT", Blank Schedule Type Limits Name input -- will not be validated.
   ** Warning ** ProcessScheduleInput: Schedule:Day:Interval="ZONE RETAIL RETAIL A  - STORY GROUND PSZ-AC OCC SCH FRIDAY", Blank Schedule Type Limits Name input -- will not be validated.
   ** Warning ** ProcessScheduleInput: Schedule:Day:Interval="ZONE RETAIL RETAIL A  - STORY GROUND PSZ-AC OCC SCH MONDAY", Blank Schedule Type Limits Name input -- will not be validated.
   ** Warning ** ProcessScheduleInput: Schedule:Day:Interval="ZONE RETAIL RETAIL A  - STORY GROUND PSZ-AC OCC SCH SATURDAY", Blank Schedule Type Limits Name input -- will not be validated.
   ** Warning ** ProcessScheduleInput: Schedule:Day:Interval="ZONE RETAIL RETAIL A  - STORY GROUND PSZ-AC OCC SCH SUMMER DESIGN DAY", Blank Schedule Type Limits Name input -- will not be validated.
   ** Warning ** ProcessScheduleInput: Schedule:Day:Interval="ZONE RETAIL RETAIL A  - STORY GROUND PSZ-AC OCC SCH SUNDAY", Blank Schedule Type Limits Name input -- will not be validated.
   ** Warning ** ProcessScheduleInput: Schedule:Day:Interval="ZONE RETAIL RETAIL A  - STORY GROUND PSZ-AC OCC SCH THURSDAY", Blank Schedule Type Limits Name input -- will not be validated.
   ** Warning ** ProcessScheduleInput: Schedule:Day:Interval="ZONE RETAIL RETAIL A  - STORY GROUND PSZ-AC OCC SCH TUESDAY", Blank Schedule Type Limits Name input -- will not be validated.
   ** Warning ** ProcessScheduleInput: Schedule:Day:Interval="ZONE RETAIL RETAIL A  - STORY GROUND PSZ-AC OCC SCH WEDNESDAY", Blank Schedule Type Limits Name input -- will not be validated.
   ** Warning ** ProcessScheduleInput: Schedule:Day:Interval="ZONE RETAIL RETAIL A  - STORY GROUND PSZ-AC OCC SCH WINTER DESIGN DAY", Blank Schedule Type Limits Name input -- will not be validated.
   ** Warning ** ProcessScheduleInput: Schedule:Day:Interval="ZONE RETAIL RETAIL B  - STORY GROUND PSZ-AC OCC SCH DEFAULT", Blank Schedule Type Limits Name input -- will not be validated.
   ** Warning ** ProcessScheduleInput: Schedule:Day:Interval="ZONE RETAIL RETAIL B  - STORY GROUND PSZ-AC OCC SCH FRIDAY", Blank Schedule Type Limits Name input -- will not be validated.
   ** Warning ** ProcessScheduleInput: Schedule:Day:Interval="ZONE RETAIL RETAIL B  - STORY GROUND PSZ-AC OCC SCH MONDAY", Blank Schedule Type Limits Name input -- will not be validated.
   ** Warning ** ProcessScheduleInput: Schedule:Day:Interval="ZONE RETAIL RETAIL B  - STORY GROUND PSZ-AC OCC SCH SATURDAY", Blank Schedule Type Limits Name input -- will not be validated.
   ** Warning ** ProcessScheduleInput: Schedule:Day:Interval="ZONE RETAIL RETAIL B  - STORY GROUND PSZ-AC OCC SCH SUMMER DESIGN DAY", Blank Schedule Type Limits Name input -- will not be validated.
   ** Warning ** ProcessScheduleInput: Schedule:Day:Interval="ZONE RETAIL RETAIL B  - STORY GROUND PSZ-AC OCC SCH SUNDAY", Blank Schedule Type Limits Name input -- will not be validated.
   ** Warning ** ProcessScheduleInput: Schedule:Day:Interval="ZONE RETAIL RETAIL B  - STORY GROUND PSZ-AC OCC SCH THURSDAY", Blank Schedule Type Limits Name input -- will not be validated.
   ** Warning ** ProcessScheduleInput: Schedule:Day:Interval="ZONE RETAIL RETAIL B  - STORY GROUND PSZ-AC OCC SCH TUESDAY", Blank Schedule Type Limits Name input -- will not be validated.
   ** Warning ** ProcessScheduleInput: Schedule:Day:Interval="ZONE RETAIL RETAIL B  - STORY GROUND PSZ-AC OCC SCH WEDNESDAY", Blank Schedule Type Limits Name input -- will not be validated.
   ** Warning ** ProcessScheduleInput: Schedule:Day:Interval="ZONE RETAIL RETAIL B  - STORY GROUND PSZ-AC OCC SCH WINTER DESIGN DAY", Blank Schedule Type Limits Name input -- will not be validated.
   ** Warning ** ProcessScheduleInput: Schedule:Day:Interval="ZONE RETAIL RETAIL B END_A - STORY GROUND PSZ-AC OCC SCH DEFAULT", Blank Schedule Type Limits Name input -- will not be validated.
   ** Warning ** ProcessScheduleInput: Schedule:Day:Interval="ZONE RETAIL RETAIL B END_A - STORY GROUND PSZ-AC OCC SCH FRIDAY", Blank Schedule Type Limits Name input -- will not be validated.
   ** Warning ** ProcessScheduleInput: Schedule:Day:Interval="ZONE RETAIL RETAIL B END_A - STORY GROUND PSZ-AC OCC SCH MONDAY", Blank Schedule Type Limits Name input -- will not be validated.
   ** Warning ** ProcessScheduleInput: Schedule:Day:Interval="ZONE RETAIL RETAIL B END_A - STORY GROUND PSZ-AC OCC SCH SATURDAY", Blank Schedule Type Limits Name input -- will not be validated.
   ** Warning ** ProcessScheduleInput: Schedule:Day:Interval="ZONE RETAIL RETAIL B END_A - STORY GROUND PSZ-AC OCC SCH SUMMER DESIGN DAY", Blank Schedule Type Limits Name input -- will not be validated.
   ** Warning ** ProcessScheduleInput: Schedule:Day:Interval="ZONE RETAIL RETAIL B END_A - STORY GROUND PSZ-AC OCC SCH SUNDAY", Blank Schedule Type Limits Name input -- will not be validated.
   ** Warning ** ProcessScheduleInput: Schedule:Day:Interval="ZONE RETAIL RETAIL B END_A - STORY GROUND PSZ-AC OCC SCH THURSDAY", Blank Schedule Type Limits Name input -- will not be validated.
   ** Warning ** ProcessScheduleInput: Schedule:Day:Interval="ZONE RETAIL RETAIL B END_A - STORY GROUND PSZ-AC OCC SCH TUESDAY", Blank Schedule Type Limits Name input -- will not be validated.
   ** Warning ** ProcessScheduleInput: Schedule:Day:Interval="ZONE RETAIL RETAIL B END_A - STORY GROUND PSZ-AC OCC SCH WEDNESDAY", Blank Schedule Type Limits Name input -- will not be validated.
   ** Warning ** ProcessScheduleInput: Schedule:Day:Interval="ZONE RETAIL RETAIL B END_A - STORY GROUND PSZ-AC OCC SCH WINTER DESIGN DAY", Blank Schedule Type Limits Name input -- will not be validated.
   ** Warning ** ProcessScheduleInput: Schedule:Day:Interval="ZONE RETAIL RETAIL C  - STORY GROUND PSZ-AC OCC SCH DEFAULT", Blank Schedule Type Limits Name input -- will not be validated.
   ** Warning ** ProcessScheduleInput: Schedule:Day:Interval="ZONE RETAIL RETAIL C  - STORY GROUND PSZ-AC OCC SCH FRIDAY", Blank Schedule Type Limits Name input -- will not be validated.
   ** Warning ** ProcessScheduleInput: Schedule:Day:Interval="ZONE RETAIL RETAIL C  - STORY GROUND PSZ-AC OCC SCH MONDAY", Blank Schedule Type Limits Name input -- will not be validated.
   ** Warning ** ProcessScheduleInput: Schedule:Day:Interval="ZONE RETAIL RETAIL C  - STORY GROUND PSZ-AC OCC SCH SATURDAY", Blank Schedule Type Limits Name input -- will not be validated.
   ** Warning ** ProcessScheduleInput: Schedule:Day:Interval="ZONE RETAIL RETAIL C  - STORY GROUND PSZ-AC OCC SCH SUMMER DESIGN DAY", Blank Schedule Type Limits Name input -- will not be validated.
   ** Warning ** ProcessScheduleInput: Schedule:Day:Interval="ZONE RETAIL RETAIL C  - STORY GROUND PSZ-AC OCC SCH SUNDAY", Blank Schedule Type Limits Name input -- will not be validated.
   ** Warning ** ProcessScheduleInput: Schedule:Day:Interval="ZONE RETAIL RETAIL C  - STORY GROUND PSZ-AC OCC SCH THURSDAY", Blank Schedule Type Limits Name input -- will not be validated.
   ** Warning ** ProcessScheduleInput: Schedule:Day:Interval="ZONE RETAIL RETAIL C  - STORY GROUND PSZ-AC OCC SCH TUESDAY", Blank Schedule Type Limits Name input -- will not be validated.
   ** Warning ** ProcessScheduleInput: Schedule:Day:Interval="ZONE RETAIL RETAIL C  - STORY GROUND PSZ-AC OCC SCH WEDNESDAY", Blank Schedule Type Limits Name input -- will not be validated.
   ** Warning ** ProcessScheduleInput: Schedule:Day:Interval="ZONE RETAIL RETAIL C  - STORY GROUND PSZ-AC OCC SCH WINTER DESIGN DAY", Blank Schedule Type Limits Name input -- will not be validated.
   ** Warning ** ProcessScheduleInput: Schedule:Year="0.05 FRACTION", Blank Schedule Type Limits Name input -- will not be validated.
   ** Warning ** ProcessScheduleInput: Schedule:Year="0.2 FRACTION", Blank Schedule Type Limits Name input -- will not be validated.
   ** Warning ** ProcessScheduleInput: Schedule:Year="43.3 C", Blank Schedule Type Limits Name input -- will not be validated.
   ** Warning ** ProcessScheduleInput: Schedule:Year="ECONOMIZER MAX OA FRACTION 70 PCT", Blank Schedule Type Limits Name input -- will not be validated.
   ** Warning ** ProcessScheduleInput: Schedule:Year="RETAILSTANDALONE PSZ_ECON_MAXOAFRAC_SCH", Blank Schedule Type Limits Name input -- will not be validated.
   ** Warning ** ProcessScheduleInput: Schedule:Year="ZONE RETAIL BACK_SPACE B  - STORY GROUND PSZ-AC OCC SCH", Blank Schedule Type Limits Name input -- will not be validated.
   ** Warning ** ProcessScheduleInput: Schedule:Year="ZONE RETAIL BACK_SPACE B END_B - STORY GROUND PSZ-AC OCC SCH", Blank Schedule Type Limits Name input -- will not be validated.
   ** Warning ** ProcessScheduleInput: Schedule:Year="ZONE RETAIL POINT_OF_SALE B  - STORY GROUND PSZ-AC OCC SCH", Blank Schedule Type Limits Name input -- will not be validated.
   ** Warning ** ProcessScheduleInput: Schedule:Year="ZONE RETAIL RETAIL A  - STORY GROUND PSZ-AC OCC SCH", Blank Schedule Type Limits Name input -- will not be validated.
   ** Warning ** ProcessScheduleInput: Schedule:Year="ZONE RETAIL RETAIL B  - STORY GROUND PSZ-AC OCC SCH", Blank Schedule Type Limits Name input -- will not be validated.
   ** Warning ** ProcessScheduleInput: Schedule:Year="ZONE RETAIL RETAIL B END_A - STORY GROUND PSZ-AC OCC SCH", Blank Schedule Type Limits Name input -- will not be validated.
   ** Warning ** ProcessScheduleInput: Schedule:Year="ZONE RETAIL RETAIL C  - STORY GROUND PSZ-AC OCC SCH", Blank Schedule Type Limits Name input -- will not be validated.
   ** Warning ** ProcessScheduleInput: Schedule:Compact="A_1_03/01/17" has missing day types in Through=4/30
   **   ~~~   ** Last "For" field=FOR: WEEKENDS HOLIDAYS
   **   ~~~   ** Missing day types="SummerDesignDay","WinterDesignDay","CustomDay1","CustomDay2"
   **   ~~~   ** Missing day types will have 0.0 as Schedule Values
   ** Warning ** ProcessScheduleInput: ProcessIntervalFields, Invalid "Until" field encountered=UNTIL: 24:30
   **   ~~~   ** Occurred in Day Schedule=A_1_03/01/17_dy_3
   **   ~~~   ** Terminating the field at 24:00
   ** Warning ** ProcessScheduleInput: ProcessIntervalFields, Invalid "Until" field encountered=UNTIL: 24:30
   **   ~~~   ** Occurred in Day Schedule=A_1_03/01/17_dy_4
   **   ~~~   ** Terminating the field at 24:00
   ** Warning ** ProcessScheduleInput: Schedule:Compact="A_1_03/01/17" has missing day types in Through=10/31
   **   ~~~   ** Last "For" field=FOR: WEEKENDS HOLIDAYS
   **   ~~~   ** Missing day types="SummerDesignDay","WinterDesignDay","CustomDay1","CustomDay2"
   **   ~~~   ** Missing day types will have 0.0 as Schedule Values
   ** Warning ** ProcessScheduleInput: Schedule:Compact="A_1_03/01/17" has missing day types in Through=12/31
   **   ~~~   ** Last "For" field=FOR: WEEKENDS HOLIDAYS
   **   ~~~   ** Missing day types="SummerDesignDay","WinterDesignDay","CustomDay1","CustomDay2"
   **   ~~~   ** Missing day types will have 0.0 as Schedule Values
   ** Warning ** ProcessScheduleInput: Schedule:Constant="ALWAYS OFF DISCRETE", Blank Schedule Type Limits Name input -- will not be validated.
   ** Warning ** ProcessScheduleInput: Schedule:Constant="ALWAYS ON CONTINUOUS", Blank Schedule Type Limits Name input -- will not be validated.
   ** Warning ** GetHTSurfaceData: Surfaces with interface to Ground found but no "Ground Temperatures" were input.
   **   ~~~   ** Found first in surface=SURFACE 73
   **   ~~~   ** Defaults, constant throughout the year of (18.0) will be used.
   ** Warning ** CheckUsedConstructions: There are 9 nominally unused constructions in input.
   **   ~~~   ** For explicit details on each unused construction, use Output:Diagnostics,DisplayExtraWarnings;
   ** Warning ** GetSimpleAirModelInputs: ZoneInfiltration:DesignFlowRate="ZONE RETAIL BACK_SPACE B  - STORY GROUND RETAIL BACK_SPACE INFILTRATION", Design Flow Rate Calculation Method specifies Flow per Exterior Surface Area, but Exterior Wall Area = 0.  0 Infiltration will result.
   ** Warning ** GetSimpleAirModelInputs: ZoneInfiltration:DesignFlowRate="ZONE RETAIL ENTRY B  - STORY GROUND RETAIL ENTRY INFILTRATION", Design Flow Rate Calculation Method specifies Flow per Exterior Surface Area, but Exterior Wall Area = 0.  0 Infiltration will result.
   ** Warning ** GetSimpleAirModelInputs: ZoneInfiltration:DesignFlowRate="ZONE RETAIL POINT_OF_SALE B  - STORY GROUND RETAIL POINT_OF_SALE INFILTRATION", Design Flow Rate Calculation Method specifies Flow per Exterior Surface Area, but Exterior Wall Area = 0.  0 Infiltration will result.
   ** Warning ** GetSimpleAirModelInputs: ZoneInfiltration:DesignFlowRate="ZONE RETAIL RETAIL B  - STORY GROUND RETAIL RETAIL INFILTRATION", Design Flow Rate Calculation Method specifies Flow per Exterior Surface Area, but Exterior Wall Area = 0.  0 Infiltration will result.
   ** Warning ** Calculated design heating load for zone=ZONE RETAIL ENTRY B  - STORY GROUND is zero.
   **   ~~~   ** Check Sizing:Zone and ZoneControl:Thermostat inputs.
   ** Warning ** Calculated design heating load for zone=ZONE RETAIL POINT_OF_SALE B  - STORY GROUND is zero.
   **   ~~~   ** Check Sizing:Zone and ZoneControl:Thermostat inputs.
   ** Warning ** Calculated design heating load for zone=ZONE RETAIL RETAIL B  - STORY GROUND is zero.
   **   ~~~   ** Check Sizing:Zone and ZoneControl:Thermostat inputs.
   ************* Beginning System Sizing Calculations
   ************* Beginning Plant Sizing Calculations
   ** Warning ** Output:Meter: invalid Name="DISTRICTCOOLING:FACILITY" - not found.
   ** Warning ** Output:Meter: invalid Name="DISTRICTHEATING:FACILITY" - not found.
   ** Warning ** Output:Meter:MeterFileOnly requested for "Electricity:Facility" (TimeStep), already on "Output:Meter". Will report to both eplusout.eso and eplusout.mtr
   ************* Testing Individual Branch Integrity
   ************* All Branches passed integrity testing
   ************* Testing Individual Supply Air Path Integrity
   ************* All Supply Air Paths passed integrity testing
   ************* Testing Individual Return Air Path Integrity
   ************* All Return Air Paths passed integrity testing
   ************* No node connection errors were found.
   ************* Beginning Simulation
   ** Warning ** CalcDoe2DXCoil: Coil:Cooling:DX:SingleSpeed "ZONE RETAIL ENTRY A  - STORY GROUND PSZ-AC 1SPD DX AC CLG COIL 2KBTU/HR 6.8EER" - Full load outlet air dry-bulb temperature < 2C. This indicates the possibility of coil frost/freeze. Outlet temperature = 1.06 C.
   **   ~~~   **  ...Occurrence info = RUN PERIOD 1, 01/01 02:30 - 02:35
   **   ~~~   ** ... Possible reasons for low outlet air dry-bulb temperatures are: This DX coil
   **   ~~~   **    1) may have a low inlet air dry-bulb temperature. Inlet air temperature = 15.229 C.
   **   ~~~   **    2) may have a low air flow rate per watt of cooling capacity. Check inputs.
   **   ~~~   **    3) is used as part of a HX assisted cooling coil which uses a high sensible effectiveness. Check inputs.
   ** Warning ** CalcDoe2DXCoil: Coil:Cooling:DX:SingleSpeed "ZONE RETAIL POINT_OF_SALE B  - STORY GROUND PSZ-AC 1SPD DX AC CLG COIL 63KBTU/HR 6.8EER" - Full load outlet air dry-bulb temperature < 2C. This indicates the possibility of coil frost/freeze. Outlet temperature = 1.35 C.
   **   ~~~   **  ...Occurrence info = RUN PERIOD 1, 01/01 06:02 - 06:03
   **   ~~~   ** ... Possible reasons for low outlet air dry-bulb temperatures are: This DX coil
   **   ~~~   **    1) may have a low inlet air dry-bulb temperature. Inlet air temperature = 16.757 C.
   **   ~~~   **    2) may have a low air flow rate per watt of cooling capacity. Check inputs.
   **   ~~~   **    3) is used as part of a HX assisted cooling coil which uses a high sensible effectiveness. Check inputs.
   ** Warning ** CalcDoe2DXCoil: Coil:Cooling:DX:SingleSpeed "ZONE RETAIL BACK_SPACE B  - STORY GROUND PSZ-AC 1SPD DX AC CLG COIL 34KBTU/HR 6.8EER" - Full load outlet air dry-bulb temperature < 2C. This indicates the possibility of coil frost/freeze. Outlet temperature = 1.07 C.
   **   ~~~   **  ...Occurrence info = RUN PERIOD 1, 01/01 07:18 - 07:20
   **   ~~~   ** ... Possible reasons for low outlet air dry-bulb temperatures are: This DX coil
   **   ~~~   **    1) may have a low inlet air dry-bulb temperature. Inlet air temperature = 17.078 C.
   **   ~~~   **    2) may have a low air flow rate per watt of cooling capacity. Check inputs.
   **   ~~~   **    3) is used as part of a HX assisted cooling coil which uses a high sensible effectiveness. Check inputs.
   ** Warning ** CalcDoe2DXCoil: Coil:Cooling:DX:SingleSpeed "ZONE RETAIL RETAIL B  - STORY GROUND PSZ-AC 1SPD DX AC CLG COIL 626KBTU/HR 6.8EER" - Full load outlet air dry-bulb temperature < 2C. This indicates the possibility of coil frost/freeze. Outlet temperature = 0.78 C.
   **   ~~~   **  ...Occurrence info = RUN PERIOD 1, 01/01 09:05 - 09:10
   **   ~~~   ** ... Possible reasons for low outlet air dry-bulb temperatures are: This DX coil
   **   ~~~   **    1) may have a low inlet air dry-bulb temperature. Inlet air temperature = 17.076 C.
   **   ~~~   **    2) may have a low air flow rate per watt of cooling capacity. Check inputs.
   **   ~~~   **    3) is used as part of a HX assisted cooling coil which uses a high sensible effectiveness. Check inputs.
   ** Warning ** CalcDoe2DXCoil: Coil:Cooling:DX:SingleSpeed "ZONE RETAIL RETAIL C  - STORY GROUND PSZ-AC 1SPD DX AC CLG COIL 97KBTU/HR 6.8EER" - Full load outlet air dry-bulb temperature < 2C. This indicates the possibility of coil frost/freeze. Outlet temperature = 1.99 C.
   **   ~~~   **  ...Occurrence info = RUN PERIOD 1, 01/01 17:38 - 17:45
   **   ~~~   ** ... Possible reasons for low outlet air dry-bulb temperatures are: This DX coil
   **   ~~~   **    1) may have a low inlet air dry-bulb temperature. Inlet air temperature = 19.697 C.
   **   ~~~   **    2) may have a low air flow rate per watt of cooling capacity. Check inputs.
   **   ~~~   **    3) is used as part of a HX assisted cooling coil which uses a high sensible effectiveness. Check inputs.
   ** Warning ** CalcDoe2DXCoil: Coil:Cooling:DX:SingleSpeed "ZONE RETAIL RETAIL A  - STORY GROUND PSZ-AC 1SPD DX AC CLG COIL 103KBTU/HR 6.8EER" - Full load outlet air dry-bulb temperature < 2C. This indicates the possibility of coil frost/freeze. Outlet temperature = 1.59 C.
   **   ~~~   **  ...Occurrence info = RUN PERIOD 1, 01/01 18:15 - 18:23
   **   ~~~   ** ... Possible reasons for low outlet air dry-bulb temperatures are: This DX coil
   **   ~~~   **    1) may have a low inlet air dry-bulb temperature. Inlet air temperature = 19.177 C.
   **   ~~~   **    2) may have a low air flow rate per watt of cooling capacity. Check inputs.
   **   ~~~   **    3) is used as part of a HX assisted cooling coil which uses a high sensible effectiveness. Check inputs.
   ** Warning ** CalcDoe2DXCoil: Coil:Cooling:DX:SingleSpeed "ZONE RETAIL RETAIL B END_A - STORY GROUND PSZ-AC 1SPD DX AC CLG COIL 101KBTU/HR 6.8EER" - Full load outlet air dry-bulb temperature < 2C. This indicates the possibility of coil frost/freeze. Outlet temperature = 1.88 C.
   **   ~~~   **  ...Occurrence info = RUN PERIOD 1, 01/01 18:15 - 18:23
   **   ~~~   ** ... Possible reasons for low outlet air dry-bulb temperatures are: This DX coil
   **   ~~~   **    1) may have a low inlet air dry-bulb temperature. Inlet air temperature = 19.212 C.
   **   ~~~   **    2) may have a low air flow rate per watt of cooling capacity. Check inputs.
   **   ~~~   **    3) is used as part of a HX assisted cooling coil which uses a high sensible effectiveness. Check inputs.
   ** Warning ** CalcDoe2DXCoil: Coil:Cooling:DX:SingleSpeed "ZONE RETAIL RETAIL C END_A - STORY GROUND PSZ-AC 1SPD DX AC CLG COIL 15KBTU/HR 6.8EER" - Full load outlet air dry-bulb temperature < 2C. This indicates the possibility of coil frost/freeze. Outlet temperature = 1.99 C.
   **   ~~~   **  ...Occurrence info = RUN PERIOD 1, 01/01 18:30 - 18:38
   **   ~~~   ** ... Possible reasons for low outlet air dry-bulb temperatures are: This DX coil
   **   ~~~   **    1) may have a low inlet air dry-bulb temperature. Inlet air temperature = 18.895 C.
   **   ~~~   **    2) may have a low air flow rate per watt of cooling capacity. Check inputs.
   **   ~~~   **    3) is used as part of a HX assisted cooling coil which uses a high sensible effectiveness. Check inputs.
   ** Warning ** CalcDoe2DXCoil: Coil:Cooling:DX:SingleSpeed "ZONE RETAIL BACK_SPACE A  - STORY GROUND PSZ-AC 1SPD DX AC CLG COIL 6KBTU/HR 6.8EER" - Full load outlet air dry-bulb temperature < 2C. This indicates the possibility of coil frost/freeze. Outlet temperature = 1.28 C.
   **   ~~~   **  ...Occurrence info = RUN PERIOD 1, 01/01 21:15 - 21:17
   **   ~~~   ** ... Possible reasons for low outlet air dry-bulb temperatures are: This DX coil
   **   ~~~   **    1) may have a low inlet air dry-bulb temperature. Inlet air temperature = 17.173 C.
   **   ~~~   **    2) may have a low air flow rate per watt of cooling capacity. Check inputs.
   **   ~~~   **    3) is used as part of a HX assisted cooling coil which uses a high sensible effectiveness. Check inputs.
   ** Warning ** CalcDoe2DXCoil: Coil:Cooling:DX:SingleSpeed "ZONE RETAIL BACK_SPACE A END_B - STORY GROUND PSZ-AC 1SPD DX AC CLG COIL 9KBTU/HR 6.8EER" - Full load outlet air dry-bulb temperature < 2C. This indicates the possibility of coil frost/freeze. Outlet temperature = 1.21 C.
   **   ~~~   **  ...Occurrence info = RUN PERIOD 1, 01/01 21:15 - 21:17
   **   ~~~   ** ... Possible reasons for low outlet air dry-bulb temperatures are: This DX coil
   **   ~~~   **    1) may have a low inlet air dry-bulb temperature. Inlet air temperature = 17.104 C.
   **   ~~~   **    2) may have a low air flow rate per watt of cooling capacity. Check inputs.
   **   ~~~   **    3) is used as part of a HX assisted cooling coil which uses a high sensible effectiveness. Check inputs.
   ** Warning ** CalcDoe2DXCoil: Coil:Cooling:DX:SingleSpeed "ZONE RETAIL BACK_SPACE C  - STORY GROUND PSZ-AC 1SPD DX AC CLG COIL 4KBTU/HR 6.8EER" - Full load outlet air dry-bulb temperature < 2C. This indicates the possibility of coil frost/freeze. Outlet temperature = -1.47 C.
   **   ~~~   **  ...Occurrence info = RUN PERIOD 1, 01/01 21:15 - 21:17
   **   ~~~   ** ... Possible reasons for low outlet air dry-bulb temperatures are: This DX coil
   **   ~~~   **    1) may have a low inlet air dry-bulb temperature. Inlet air temperature = 15.288 C.
   **   ~~~   **    2) may have a low air flow rate per watt of cooling capacity. Check inputs.
   **   ~~~   **    3) is used as part of a HX assisted cooling coil which uses a high sensible effectiveness. Check inputs.
   ** Warning ** CalcDoe2DXCoil: Coil:Cooling:DX:SingleSpeed "ZONE RETAIL BACK_SPACE C END_B - STORY GROUND PSZ-AC 1SPD DX AC CLG COIL 7KBTU/HR 6.8EER" - Full load outlet air dry-bulb temperature < 2C. This indicates the possibility of coil frost/freeze. Outlet temperature = 0.72 C.
   **   ~~~   **  ...Occurrence info = RUN PERIOD 1, 01/01 21:15 - 21:17
   **   ~~~   ** ... Possible reasons for low outlet air dry-bulb temperatures are: This DX coil
   **   ~~~   **    1) may have a low inlet air dry-bulb temperature. Inlet air temperature = 16.615 C.
   **   ~~~   **    2) may have a low air flow rate per watt of cooling capacity. Check inputs.
   **   ~~~   **    3) is used as part of a HX assisted cooling coil which uses a high sensible effectiveness. Check inputs.
   ** Warning ** CalcDoe2DXCoil: Coil:Cooling:DX:SingleSpeed "ZONE RETAIL POINT_OF_SALE A  - STORY GROUND PSZ-AC 1SPD DX AC CLG COIL 10KBTU/HR 6.8EER" - Full load outlet air dry-bulb temperature < 2C. This indicates the possibility of coil frost/freeze. Outlet temperature = -0.54 C.
   **   ~~~   **  ...Occurrence info = RUN PERIOD 1, 01/01 21:15 - 21:17
   **   ~~~   ** ... Possible reasons for low outlet air dry-bulb temperatures are: This DX coil
   **   ~~~   **    1) may have a low inlet air dry-bulb temperature. Inlet air temperature = 16.662 C.
   **   ~~~   **    2) may have a low air flow rate per watt of cooling capacity. Check inputs.
   **   ~~~   **    3) is used as part of a HX assisted cooling coil which uses a high sensible effectiveness. Check inputs.
   ** Warning ** CalcDoe2DXCoil: Coil:Cooling:DX:SingleSpeed "ZONE RETAIL POINT_OF_SALE C  - STORY GROUND PSZ-AC 1SPD DX AC CLG COIL 9KBTU/HR 6.8EER" - Full load outlet air dry-bulb temperature < 2C. This indicates the possibility of coil frost/freeze. Outlet temperature = 0.52 C.
   **   ~~~   **  ...Occurrence info = RUN PERIOD 1, 01/01 21:15 - 21:17
   **   ~~~   ** ... Possible reasons for low outlet air dry-bulb temperatures are: This DX coil
   **   ~~~   **    1) may have a low inlet air dry-bulb temperature. Inlet air temperature = 16.411 C.
   **   ~~~   **    2) may have a low air flow rate per watt of cooling capacity. Check inputs.
   **   ~~~   **    3) is used as part of a HX assisted cooling coil which uses a high sensible effectiveness. Check inputs.
   ** Warning ** CalcDoe2DXCoil: Coil:Cooling:DX:SingleSpeed "ZONE RETAIL RETAIL A END_A - STORY GROUND PSZ-AC 1SPD DX AC CLG COIL 17KBTU/HR 6.8EER" - Full load outlet air dry-bulb temperature < 2C. This indicates the possibility of coil frost/freeze. Outlet temperature = -0.99 C.
   **   ~~~   **  ...Occurrence info = RUN PERIOD 1, 01/01 21:15 - 21:17
   **   ~~~   ** ... Possible reasons for low outlet air dry-bulb temperatures are: This DX coil
   **   ~~~   **    1) may have a low inlet air dry-bulb temperature. Inlet air temperature = 15.846 C.
   **   ~~~   **    2) may have a low air flow rate per watt of cooling capacity. Check inputs.
   **   ~~~   **    3) is used as part of a HX assisted cooling coil which uses a high sensible effectiveness. Check inputs.
   ** Warning ** CalcDoe2DXCoil: Coil:Cooling:DX:SingleSpeed "ZONE RETAIL BACK_SPACE B END_B - STORY GROUND PSZ-AC 1SPD DX AC CLG COIL 47KBTU/HR 6.8EER" - Full load outlet air dry-bulb temperature < 2C. This indicates the possibility of coil frost/freeze. Outlet temperature = 1.65 C.
   **   ~~~   **  ...Occurrence info = RUN PERIOD 1, 01/04 21:50 - 21:55
   **   ~~~   ** ... Possible reasons for low outlet air dry-bulb temperatures are: This DX coil
   **   ~~~   **    1) may have a low inlet air dry-bulb temperature. Inlet air temperature = 13.797 C.
   **   ~~~   **    2) may have a low air flow rate per watt of cooling capacity. Check inputs.
   **   ~~~   **    3) is used as part of a HX assisted cooling coil which uses a high sensible effectiveness. Check inputs.
   ** Warning ** CalcDoe2DXCoil: Coil:Cooling:DX:SingleSpeed "ZONE RETAIL ENTRY C  - STORY GROUND PSZ-AC 1SPD DX AC CLG COIL 3KBTU/HR 6.8EER" - Full load outlet air dry-bulb temperature < 2C. This indicates the possibility of coil frost/freeze. Outlet temperature = 1.81 C.
   **   ~~~   **  ...Occurrence info = RUN PERIOD 1, 11/29 03:30 - 03:34
   **   ~~~   ** ... Possible reasons for low outlet air dry-bulb temperatures are: This DX coil
   **   ~~~   **    1) may have a low inlet air dry-bulb temperature. Inlet air temperature = 15.067 C.
   **   ~~~   **    2) may have a low air flow rate per watt of cooling capacity. Check inputs.
   **   ~~~   **    3) is used as part of a HX assisted cooling coil which uses a high sensible effectiveness. Check inputs.
   ** Warning ** CalcDoe2DXCoil: Coil:Cooling:DX:SingleSpeed "ZONE RETAIL ENTRY B  - STORY GROUND PSZ-AC 1SPD DX AC CLG COIL 18KBTU/HR 6.8EER" - Full load outlet air dry-bulb temperature < 2C. This indicates the possibility of coil frost/freeze. Outlet temperature = 1.93 C.
   **   ~~~   **  ...Occurrence info = RUN PERIOD 1, 11/30 00:00 - 00:04
   **   ~~~   ** ... Possible reasons for low outlet air dry-bulb temperatures are: This DX coil
   **   ~~~   **    1) may have a low inlet air dry-bulb temperature. Inlet air temperature = 17.990 C.
   **   ~~~   **    2) may have a low air flow rate per watt of cooling capacity. Check inputs.
   **   ~~~   **    3) is used as part of a HX assisted cooling coil which uses a high sensible effectiveness. Check inputs.
   ************* Simulation Error Summary *************
   ************* There are 9 unused schedules in input.
   ************* There are 9 unused week schedules in input.
   ************* There are 46 unused day schedules in input.
   ************* Use Output:Diagnostics,DisplayUnusedSchedules; to see them.
   *************
   ************* ===== Recurring Error Summary =====
   ************* The following recurring error messages occurred.
   *************
   *************  ** Warning ** CalcDoe2DXCoil: Coil:Cooling:DX:SingleSpeed="ZONE RETAIL ENTRY A  - STORY GROUND PSZ-AC 1SPD DX AC CLG COIL 2KBTU/HR 6.8EER" - Full load outlet temperature indicates a possibility of frost/freeze error continues. Outlet air temperature statistics follow:
   *************  **   ~~~   **   This error occurred 10 total times;
   *************  **   ~~~   **   during Warmup 0 times;
   *************  **   ~~~   **   during Sizing 0 times.
   *************  **   ~~~   **   Max=1.99601  Min=-0.668941
   *************
   *************  ** Warning ** CalcDoe2DXCoil: Coil:Cooling:DX:SingleSpeed="ZONE RETAIL POINT_OF_SALE B  - STORY GROUND PSZ-AC 1SPD DX AC CLG COIL 63KBTU/HR 6.8EER" - Full load outlet temperature indicates a possibility of frost/freeze error continues. Outlet air temperature statistics follow:
   *************  **   ~~~   **   This error occurred 10 total times;
   *************  **   ~~~   **   during Warmup 0 times;
   *************  **   ~~~   **   during Sizing 0 times.
   *************  **   ~~~   **   Max=1.991024  Min=0.765184
   *************
   *************  ** Warning ** CalcDoe2DXCoil: Coil:Cooling:DX:SingleSpeed="ZONE RETAIL BACK_SPACE B  - STORY GROUND PSZ-AC 1SPD DX AC CLG COIL 34KBTU/HR 6.8EER" - Full load outlet temperature indicates a possibility of frost/freeze error continues. Outlet air temperature statistics follow:
   *************  **   ~~~   **   This error occurred 21 total times;
   *************  **   ~~~   **   during Warmup 0 times;
   *************  **   ~~~   **   during Sizing 0 times.
   *************  **   ~~~   **   Max=1.769528  Min=-2.242768
   *************
   *************  ** Warning ** CalcDoe2DXCoil: Coil:Cooling:DX:SingleSpeed="ZONE RETAIL RETAIL B  - STORY GROUND PSZ-AC 1SPD DX AC CLG COIL 626KBTU/HR 6.8EER" - Full load outlet temperature indicates a possibility of frost/freeze error continues. Outlet air temperature statistics follow:
   *************  **   ~~~   **   This error occurred 326 total times;
   *************  **   ~~~   **   during Warmup 0 times;
   *************  **   ~~~   **   during Sizing 0 times.
   *************  **   ~~~   **   Max=1.995647  Min=-3.078234
   *************
   *************  ** Warning ** CalcDoe2DXCoil: Coil:Cooling:DX:SingleSpeed="ZONE RETAIL RETAIL C  - STORY GROUND PSZ-AC 1SPD DX AC CLG COIL 97KBTU/HR 6.8EER" - Full load outlet temperature indicates a possibility of frost/freeze error continues. Outlet air temperature statistics follow:
   *************  **   ~~~   **   This error occurred 212 total times;
   *************  **   ~~~   **   during Warmup 0 times;
   *************  **   ~~~   **   during Sizing 0 times.
   *************  **   ~~~   **   Max=1.993727  Min=-6.300451
   *************
   *************  ** Warning ** CalcDoe2DXCoil: Coil:Cooling:DX:SingleSpeed="ZONE RETAIL RETAIL A  - STORY GROUND PSZ-AC 1SPD DX AC CLG COIL 103KBTU/HR 6.8EER" - Full load outlet temperature indicates a possibility of frost/freeze error continues. Outlet air temperature statistics follow:
   *************  **   ~~~   **   This error occurred 158 total times;
   *************  **   ~~~   **   during Warmup 0 times;
   *************  **   ~~~   **   during Sizing 0 times.
   *************  **   ~~~   **   Max=1.995913  Min=-5.449664
   *************
   *************  ** Warning ** CalcDoe2DXCoil: Coil:Cooling:DX:SingleSpeed="ZONE RETAIL RETAIL B END_A - STORY GROUND PSZ-AC 1SPD DX AC CLG COIL 101KBTU/HR 6.8EER" - Full load outlet temperature indicates a possibility of frost/freeze error continues. Outlet air temperature statistics follow:
   *************  **   ~~~   **   This error occurred 166 total times;
   *************  **   ~~~   **   during Warmup 0 times;
   *************  **   ~~~   **   during Sizing 0 times.
   *************  **   ~~~   **   Max=1.995361  Min=-5.621651
   *************
   *************  ** Warning ** CalcDoe2DXCoil: Coil:Cooling:DX:SingleSpeed="ZONE RETAIL RETAIL C END_A - STORY GROUND PSZ-AC 1SPD DX AC CLG COIL 15KBTU/HR 6.8EER" - Full load outlet temperature indicates a possibility of frost/freeze error continues. Outlet air temperature statistics follow:
   *************  **   ~~~   **   This error occurred 150 total times;
   *************  **   ~~~   **   during Warmup 0 times;
   *************  **   ~~~   **   during Sizing 0 times.
   *************  **   ~~~   **   Max=1.991352  Min=-3.223143
   *************
   *************  ** Warning ** CalcDoe2DXCoil: Coil:Cooling:DX:SingleSpeed="ZONE RETAIL BACK_SPACE A  - STORY GROUND PSZ-AC 1SPD DX AC CLG COIL 6KBTU/HR 6.8EER" - Full load outlet temperature indicates a possibility of frost/freeze error continues. Outlet air temperature statistics follow:
   *************  **   ~~~   **   This error occurred 70 total times;
   *************  **   ~~~   **   during Warmup 0 times;
   *************  **   ~~~   **   during Sizing 0 times.
   *************  **   ~~~   **   Max=1.993853  Min=-1.084627
   *************
   *************  ** Warning ** CalcDoe2DXCoil: Coil:Cooling:DX:SingleSpeed="ZONE RETAIL BACK_SPACE A END_B - STORY GROUND PSZ-AC 1SPD DX AC CLG COIL 9KBTU/HR 6.8EER" - Full load outlet temperature indicates a possibility of frost/freeze error continues. Outlet air temperature statistics follow:
   *************  **   ~~~   **   This error occurred 48 total times;
   *************  **   ~~~   **   during Warmup 0 times;
   *************  **   ~~~   **   during Sizing 0 times.
   *************  **   ~~~   **   Max=1.973294  Min=-0.76668
   *************
   *************  ** Warning ** CalcDoe2DXCoil: Coil:Cooling:DX:SingleSpeed="ZONE RETAIL BACK_SPACE C  - STORY GROUND PSZ-AC 1SPD DX AC CLG COIL 4KBTU/HR 6.8EER" - Full load outlet temperature indicates a possibility of frost/freeze error continues. Outlet air temperature statistics follow:
   *************  **   ~~~   **   This error occurred 125 total times;
   *************  **   ~~~   **   during Warmup 0 times;
   *************  **   ~~~   **   during Sizing 0 times.
   *************  **   ~~~   **   Max=1.987033  Min=-3.03309
   *************
   *************  ** Warning ** CalcDoe2DXCoil: Coil:Cooling:DX:SingleSpeed="ZONE RETAIL BACK_SPACE C END_B - STORY GROUND PSZ-AC 1SPD DX AC CLG COIL 7KBTU/HR 6.8EER" - Full load outlet temperature indicates a possibility of frost/freeze error continues. Outlet air temperature statistics follow:
   *************  **   ~~~   **   This error occurred 52 total times;
   *************  **   ~~~   **   during Warmup 0 times;
   *************  **   ~~~   **   during Sizing 0 times.
   *************  **   ~~~   **   Max=1.967212  Min=-1.288248
   *************
   *************  ** Warning ** CalcDoe2DXCoil: Coil:Cooling:DX:SingleSpeed="ZONE RETAIL POINT_OF_SALE A  - STORY GROUND PSZ-AC 1SPD DX AC CLG COIL 10KBTU/HR 6.8EER" - Full load outlet temperature indicates a possibility of frost/freeze error continues. Outlet air temperature statistics follow:
   *************  **   ~~~   **   This error occurred 122 total times;
   *************  **   ~~~   **   during Warmup 0 times;
   *************  **   ~~~   **   during Sizing 0 times.
   *************  **   ~~~   **   Max=1.99616  Min=-2.742664
   *************
   *************  ** Warning ** CalcDoe2DXCoil: Coil:Cooling:DX:SingleSpeed="ZONE RETAIL POINT_OF_SALE C  - STORY GROUND PSZ-AC 1SPD DX AC CLG COIL 9KBTU/HR 6.8EER" - Full load outlet temperature indicates a possibility of frost/freeze error continues. Outlet air temperature statistics follow:
   *************  **   ~~~   **   This error occurred 67 total times;
   *************  **   ~~~   **   during Warmup 0 times;
   *************  **   ~~~   **   during Sizing 0 times.
   *************  **   ~~~   **   Max=1.972214  Min=-1.694144
   *************
   *************  ** Warning ** CalcDoe2DXCoil: Coil:Cooling:DX:SingleSpeed="ZONE RETAIL RETAIL A END_A - STORY GROUND PSZ-AC 1SPD DX AC CLG COIL 17KBTU/HR 6.8EER" - Full load outlet temperature indicates a possibility of frost/freeze error continues. Outlet air temperature statistics follow:
   *************  **   ~~~   **   This error occurred 102 total times;
   *************  **   ~~~   **   during Warmup 0 times;
   *************  **   ~~~   **   during Sizing 0 times.
   *************  **   ~~~   **   Max=1.980378  Min=-2.647698
   *************
   *************  ** Warning ** CalcDoe2DXCoil: Coil:Cooling:DX:SingleSpeed="ZONE RETAIL BACK_SPACE B END_B - STORY GROUND PSZ-AC 1SPD DX AC CLG COIL 47KBTU/HR 6.8EER" - Full load outlet temperature indicates a possibility of frost/freeze error continues. Outlet air temperature statistics follow:
   *************  **   ~~~   **   This error occurred 66 total times;
   *************  **   ~~~   **   during Warmup 0 times;
   *************  **   ~~~   **   during Sizing 0 times.
   *************  **   ~~~   **   Max=1.999174  Min=-2.395939
   *************
   *************  ** Warning ** CalcDoe2DXCoil: Coil:Cooling:DX:SingleSpeed="ZONE RETAIL ENTRY C  - STORY GROUND PSZ-AC 1SPD DX AC CLG COIL 3KBTU/HR 6.8EER" - Full load outlet temperature indicates a possibility of frost/freeze error continues. Outlet air temperature statistics follow:
   *************  **   ~~~   **   This error occurred 6 total times;
   *************  **   ~~~   **   during Warmup 0 times;
   *************  **   ~~~   **   during Sizing 0 times.
   *************  **   ~~~   **   Max=1.984816  Min=0.250137
   *************
   *************  ** Warning ** CalcDoe2DXCoil: Coil:Cooling:DX:SingleSpeed="ZONE RETAIL ENTRY B  - STORY GROUND PSZ-AC 1SPD DX AC CLG COIL 18KBTU/HR 6.8EER" - Full load outlet temperature indicates a possibility of frost/freeze error continues. Outlet air temperature statistics follow:
   *************  **   ~~~   **   This error occurred 2 total times;
   *************  **   ~~~   **   during Warmup 0 times;
   *************  **   ~~~   **   during Sizing 0 times.
   *************  **   ~~~   **   Max=1.928818  Min=1.59274
   *************
   *************
   ************* ===== Final Error Summary =====
   ************* The following error categories occurred.  Consider correcting or noting.
   ************* Nominally Unused Constructions
   ************* ..The nominally unused constructions warning is provided to alert you to potential conditions that can cause
   ************* ..extra time during simulation. Each construction is calculated by the algorithm indicated in the HeatBalanceAlgorithm
   ************* ..object. You may remove the constructions indicated (when you use the DisplayExtraWarnings option).
   *************
   ************* EnergyPlus Warmup Error Summary. During Warmup: 0 Warning; 0 Severe Errors.
   ************* EnergyPlus Sizing Error Summary. During Sizing: 139 Warning; 0 Severe Errors.
   ************* EnergyPlus Completed Successfully-- 1855 Warning; 0 Severe Errors; Elapsed Time=00hr 00min 59.15sec
