! Program Version,EnergyPlus, Version 8.7.0-df3c0af5a5, YMD=2017.09.06 14:52,IDD_Version 8.7.0
! Output:Meter Objects (applicable to this run)
Output:Meter,Electricity:Facility,hourly; !- [J]
Output:Meter:Cumulative,Electricity:Facility,hourly; !- [J]
Output:Meter,Electricity:Building,hourly; !- [J]
Output:Meter:Cumulative,Electricity:Building,hourly; !- [J]
Output:Meter,Electricity:Zone:ZONE RETAIL BACK_SPACE A  - STORY GROUND,hourly; !- [J]
Output:Meter:Cumulative,Electricity:Zone:ZONE RETAIL BACK_SPACE A  - STORY GROUND,hourly; !- [J]
Output:Meter,InteriorLights:Electricity,hourly; !- [J]
Output:Meter:Cumulative,InteriorLights:Electricity,hourly; !- [J]
Output:Meter,InteriorLights:Electricity:Zone:ZONE RETAIL BACK_SPACE A  - STORY GROUND,hourly; !- [J]
Output:Meter:Cumulative,InteriorLights:Electricity:Zone:ZONE RETAIL BACK_SPACE A  - STORY GROUND,hourly; !- [J]
Output:Meter,General:InteriorLights:Electricity,hourly; !- [J]
Output:Meter:Cumulative,General:InteriorLights:Electricity,hourly; !- [J]
Output:Meter,Electricity:Zone:ZONE RETAIL BACK_SPACE A END_B - STORY GROUND,hourly; !- [J]
Output:Meter:Cumulative,Electricity:Zone:ZONE RETAIL BACK_SPACE A END_B - STORY GROUND,hourly; !- [J]
Output:Meter,InteriorLights:Electricity:Zone:ZONE RETAIL BACK_SPACE A END_B - STORY GROUND,hourly; !- [J]
Output:Meter:Cumulative,InteriorLights:Electricity:Zone:ZONE RETAIL BACK_SPACE A END_B - STORY GROUND,hourly; !- [J]
Output:Meter,Electricity:Zone:ZONE RETAIL BACK_SPACE B  - STORY GROUND,hourly; !- [J]
Output:Meter:Cumulative,Electricity:Zone:ZONE RETAIL BACK_SPACE B  - STORY GROUND,hourly; !- [J]
Output:Meter,InteriorLights:Electricity:Zone:ZONE RETAIL BACK_SPACE B  - STORY GROUND,hourly; !- [J]
Output:Meter:Cumulative,InteriorLights:Electricity:Zone:ZONE RETAIL BACK_SPACE B  - STORY GROUND,hourly; !- [J]
Output:Meter,Electricity:Zone:ZONE RETAIL BACK_SPACE B END_B - STORY GROUND,hourly; !- [J]
Output:Meter:Cumulative,Electricity:Zone:ZONE RETAIL BACK_SPACE B END_B - STORY GROUND,hourly; !- [J]
Output:Meter,InteriorLights:Electricity:Zone:ZONE RETAIL BACK_SPACE B END_B - STORY GROUND,hourly; !- [J]
Output:Meter:Cumulative,InteriorLights:Electricity:Zone:ZONE RETAIL BACK_SPACE B END_B - STORY GROUND,hourly; !- [J]
Output:Meter,Electricity:Zone:ZONE RETAIL BACK_SPACE C  - STORY GROUND,hourly; !- [J]
Output:Meter:Cumulative,Electricity:Zone:ZONE RETAIL BACK_SPACE C  - STORY GROUND,hourly; !- [J]
Output:Meter,InteriorLights:Electricity:Zone:ZONE RETAIL BACK_SPACE C  - STORY GROUND,hourly; !- [J]
Output:Meter:Cumulative,InteriorLights:Electricity:Zone:ZONE RETAIL BACK_SPACE C  - STORY GROUND,hourly; !- [J]
Output:Meter,Electricity:Zone:ZONE RETAIL BACK_SPACE C END_B - STORY GROUND,hourly; !- [J]
Output:Meter:Cumulative,Electricity:Zone:ZONE RETAIL BACK_SPACE C END_B - STORY GROUND,hourly; !- [J]
Output:Meter,InteriorLights:Electricity:Zone:ZONE RETAIL BACK_SPACE C END_B - STORY GROUND,hourly; !- [J]
Output:Meter:Cumulative,InteriorLights:Electricity:Zone:ZONE RETAIL BACK_SPACE C END_B - STORY GROUND,hourly; !- [J]
Output:Meter,Electricity:Zone:ZONE RETAIL ENTRY A  - STORY GROUND,hourly; !- [J]
Output:Meter:Cumulative,Electricity:Zone:ZONE RETAIL ENTRY A  - STORY GROUND,hourly; !- [J]
Output:Meter,InteriorLights:Electricity:Zone:ZONE RETAIL ENTRY A  - STORY GROUND,hourly; !- [J]
Output:Meter:Cumulative,InteriorLights:Electricity:Zone:ZONE RETAIL ENTRY A  - STORY GROUND,hourly; !- [J]
Output:Meter,Electricity:Zone:ZONE RETAIL ENTRY B  - STORY GROUND,hourly; !- [J]
Output:Meter:Cumulative,Electricity:Zone:ZONE RETAIL ENTRY B  - STORY GROUND,hourly; !- [J]
Output:Meter,InteriorLights:Electricity:Zone:ZONE RETAIL ENTRY B  - STORY GROUND,hourly; !- [J]
Output:Meter:Cumulative,InteriorLights:Electricity:Zone:ZONE RETAIL ENTRY B  - STORY GROUND,hourly; !- [J]
Output:Meter,Electricity:Zone:ZONE RETAIL ENTRY C  - STORY GROUND,hourly; !- [J]
Output:Meter:Cumulative,Electricity:Zone:ZONE RETAIL ENTRY C  - STORY GROUND,hourly; !- [J]
Output:Meter,InteriorLights:Electricity:Zone:ZONE RETAIL ENTRY C  - STORY GROUND,hourly; !- [J]
Output:Meter:Cumulative,InteriorLights:Electricity:Zone:ZONE RETAIL ENTRY C  - STORY GROUND,hourly; !- [J]
Output:Meter,Electricity:Zone:ZONE RETAIL POINT_OF_SALE A  - STORY GROUND,hourly; !- [J]
Output:Meter:Cumulative,Electricity:Zone:ZONE RETAIL POINT_OF_SALE A  - STORY GROUND,hourly; !- [J]
Output:Meter,InteriorLights:Electricity:Zone:ZONE RETAIL POINT_OF_SALE A  - STORY GROUND,hourly; !- [J]
Output:Meter:Cumulative,InteriorLights:Electricity:Zone:ZONE RETAIL POINT_OF_SALE A  - STORY GROUND,hourly; !- [J]
Output:Meter,Electricity:Zone:ZONE RETAIL POINT_OF_SALE B  - STORY GROUND,hourly; !- [J]
Output:Meter:Cumulative,Electricity:Zone:ZONE RETAIL POINT_OF_SALE B  - STORY GROUND,hourly; !- [J]
Output:Meter,InteriorLights:Electricity:Zone:ZONE RETAIL POINT_OF_SALE B  - STORY GROUND,hourly; !- [J]
Output:Meter:Cumulative,InteriorLights:Electricity:Zone:ZONE RETAIL POINT_OF_SALE B  - STORY GROUND,hourly; !- [J]
Output:Meter,Electricity:Zone:ZONE RETAIL POINT_OF_SALE C  - STORY GROUND,hourly; !- [J]
Output:Meter:Cumulative,Electricity:Zone:ZONE RETAIL POINT_OF_SALE C  - STORY GROUND,hourly; !- [J]
Output:Meter,InteriorLights:Electricity:Zone:ZONE RETAIL POINT_OF_SALE C  - STORY GROUND,hourly; !- [J]
Output:Meter:Cumulative,InteriorLights:Electricity:Zone:ZONE RETAIL POINT_OF_SALE C  - STORY GROUND,hourly; !- [J]
Output:Meter,Electricity:Zone:ZONE RETAIL RETAIL A  - STORY GROUND,hourly; !- [J]
Output:Meter:Cumulative,Electricity:Zone:ZONE RETAIL RETAIL A  - STORY GROUND,hourly; !- [J]
Output:Meter,InteriorLights:Electricity:Zone:ZONE RETAIL RETAIL A  - STORY GROUND,hourly; !- [J]
Output:Meter:Cumulative,InteriorLights:Electricity:Zone:ZONE RETAIL RETAIL A  - STORY GROUND,hourly; !- [J]
Output:Meter,Electricity:Zone:ZONE RETAIL RETAIL A END_A - STORY GROUND,hourly; !- [J]
Output:Meter:Cumulative,Electricity:Zone:ZONE RETAIL RETAIL A END_A - STORY GROUND,hourly; !- [J]
Output:Meter,InteriorLights:Electricity:Zone:ZONE RETAIL RETAIL A END_A - STORY GROUND,hourly; !- [J]
Output:Meter:Cumulative,InteriorLights:Electricity:Zone:ZONE RETAIL RETAIL A END_A - STORY GROUND,hourly; !- [J]
Output:Meter,Electricity:Zone:ZONE RETAIL RETAIL B  - STORY GROUND,hourly; !- [J]
Output:Meter:Cumulative,Electricity:Zone:ZONE RETAIL RETAIL B  - STORY GROUND,hourly; !- [J]
Output:Meter,InteriorLights:Electricity:Zone:ZONE RETAIL RETAIL B  - STORY GROUND,hourly; !- [J]
Output:Meter:Cumulative,InteriorLights:Electricity:Zone:ZONE RETAIL RETAIL B  - STORY GROUND,hourly; !- [J]
Output:Meter,Electricity:Zone:ZONE RETAIL RETAIL B END_A - STORY GROUND,hourly; !- [J]
Output:Meter:Cumulative,Electricity:Zone:ZONE RETAIL RETAIL B END_A - STORY GROUND,hourly; !- [J]
Output:Meter,InteriorLights:Electricity:Zone:ZONE RETAIL RETAIL B END_A - STORY GROUND,hourly; !- [J]
Output:Meter:Cumulative,InteriorLights:Electricity:Zone:ZONE RETAIL RETAIL B END_A - STORY GROUND,hourly; !- [J]
Output:Meter,Electricity:Zone:ZONE RETAIL RETAIL C  - STORY GROUND,hourly; !- [J]
Output:Meter:Cumulative,Electricity:Zone:ZONE RETAIL RETAIL C  - STORY GROUND,hourly; !- [J]
Output:Meter,InteriorLights:Electricity:Zone:ZONE RETAIL RETAIL C  - STORY GROUND,hourly; !- [J]
Output:Meter:Cumulative,InteriorLights:Electricity:Zone:ZONE RETAIL RETAIL C  - STORY GROUND,hourly; !- [J]
Output:Meter,Electricity:Zone:ZONE RETAIL RETAIL C END_A - STORY GROUND,hourly; !- [J]
Output:Meter:Cumulative,Electricity:Zone:ZONE RETAIL RETAIL C END_A - STORY GROUND,hourly; !- [J]
Output:Meter,InteriorLights:Electricity:Zone:ZONE RETAIL RETAIL C END_A - STORY GROUND,hourly; !- [J]
Output:Meter:Cumulative,InteriorLights:Electricity:Zone:ZONE RETAIL RETAIL C END_A - STORY GROUND,hourly; !- [J]
Output:Meter,InteriorEquipment:Electricity,hourly; !- [J]
Output:Meter:Cumulative,InteriorEquipment:Electricity,hourly; !- [J]
Output:Meter,InteriorEquipment:Electricity:Zone:ZONE RETAIL BACK_SPACE A  - STORY GROUND,hourly; !- [J]
Output:Meter:Cumulative,InteriorEquipment:Electricity:Zone:ZONE RETAIL BACK_SPACE A  - STORY GROUND,hourly; !- [J]
Output:Meter,General:InteriorEquipment:Electricity,hourly; !- [J]
Output:Meter:Cumulative,General:InteriorEquipment:Electricity,hourly; !- [J]
Output:Meter,InteriorEquipment:Electricity:Zone:ZONE RETAIL BACK_SPACE A END_B - STORY GROUND,hourly; !- [J]
Output:Meter:Cumulative,InteriorEquipment:Electricity:Zone:ZONE RETAIL BACK_SPACE A END_B - STORY GROUND,hourly; !- [J]
Output:Meter,InteriorEquipment:Electricity:Zone:ZONE RETAIL BACK_SPACE B  - STORY GROUND,hourly; !- [J]
Output:Meter:Cumulative,InteriorEquipment:Electricity:Zone:ZONE RETAIL BACK_SPACE B  - STORY GROUND,hourly; !- [J]
Output:Meter,InteriorEquipment:Electricity:Zone:ZONE RETAIL BACK_SPACE B END_B - STORY GROUND,hourly; !- [J]
Output:Meter:Cumulative,InteriorEquipment:Electricity:Zone:ZONE RETAIL BACK_SPACE B END_B - STORY GROUND,hourly; !- [J]
Output:Meter,InteriorEquipment:Electricity:Zone:ZONE RETAIL BACK_SPACE C  - STORY GROUND,hourly; !- [J]
Output:Meter:Cumulative,InteriorEquipment:Electricity:Zone:ZONE RETAIL BACK_SPACE C  - STORY GROUND,hourly; !- [J]
Output:Meter,InteriorEquipment:Electricity:Zone:ZONE RETAIL BACK_SPACE C END_B - STORY GROUND,hourly; !- [J]
Output:Meter:Cumulative,InteriorEquipment:Electricity:Zone:ZONE RETAIL BACK_SPACE C END_B - STORY GROUND,hourly; !- [J]
Output:Meter,InteriorEquipment:Electricity:Zone:ZONE RETAIL ENTRY A  - STORY GROUND,hourly; !- [J]
Output:Meter:Cumulative,InteriorEquipment:Electricity:Zone:ZONE RETAIL ENTRY A  - STORY GROUND,hourly; !- [J]
Output:Meter,InteriorEquipment:Electricity:Zone:ZONE RETAIL ENTRY B  - STORY GROUND,hourly; !- [J]
Output:Meter:Cumulative,InteriorEquipment:Electricity:Zone:ZONE RETAIL ENTRY B  - STORY GROUND,hourly; !- [J]
Output:Meter,InteriorEquipment:Electricity:Zone:ZONE RETAIL ENTRY C  - STORY GROUND,hourly; !- [J]
Output:Meter:Cumulative,InteriorEquipment:Electricity:Zone:ZONE RETAIL ENTRY C  - STORY GROUND,hourly; !- [J]
Output:Meter,InteriorEquipment:Electricity:Zone:ZONE RETAIL POINT_OF_SALE A  - STORY GROUND,hourly; !- [J]
Output:Meter:Cumulative,InteriorEquipment:Electricity:Zone:ZONE RETAIL POINT_OF_SALE A  - STORY GROUND,hourly; !- [J]
Output:Meter,InteriorEquipment:Electricity:Zone:ZONE RETAIL POINT_OF_SALE B  - STORY GROUND,hourly; !- [J]
Output:Meter:Cumulative,InteriorEquipment:Electricity:Zone:ZONE RETAIL POINT_OF_SALE B  - STORY GROUND,hourly; !- [J]
Output:Meter,InteriorEquipment:Electricity:Zone:ZONE RETAIL POINT_OF_SALE C  - STORY GROUND,hourly; !- [J]
Output:Meter:Cumulative,InteriorEquipment:Electricity:Zone:ZONE RETAIL POINT_OF_SALE C  - STORY GROUND,hourly; !- [J]
Output:Meter,InteriorEquipment:Electricity:Zone:ZONE RETAIL RETAIL A  - STORY GROUND,hourly; !- [J]
Output:Meter:Cumulative,InteriorEquipment:Electricity:Zone:ZONE RETAIL RETAIL A  - STORY GROUND,hourly; !- [J]
Output:Meter,InteriorEquipment:Electricity:Zone:ZONE RETAIL RETAIL A END_A - STORY GROUND,hourly; !- [J]
Output:Meter:Cumulative,InteriorEquipment:Electricity:Zone:ZONE RETAIL RETAIL A END_A - STORY GROUND,hourly; !- [J]
Output:Meter,InteriorEquipment:Electricity:Zone:ZONE RETAIL RETAIL B  - STORY GROUND,hourly; !- [J]
Output:Meter:Cumulative,InteriorEquipment:Electricity:Zone:ZONE RETAIL RETAIL B  - STORY GROUND,hourly; !- [J]
Output:Meter,InteriorEquipment:Electricity:Zone:ZONE RETAIL RETAIL B END_A - STORY GROUND,hourly; !- [J]
Output:Meter:Cumulative,InteriorEquipment:Electricity:Zone:ZONE RETAIL RETAIL B END_A - STORY GROUND,hourly; !- [J]
Output:Meter,InteriorEquipment:Electricity:Zone:ZONE RETAIL RETAIL C  - STORY GROUND,hourly; !- [J]
Output:Meter:Cumulative,InteriorEquipment:Electricity:Zone:ZONE RETAIL RETAIL C  - STORY GROUND,hourly; !- [J]
Output:Meter,InteriorEquipment:Electricity:Zone:ZONE RETAIL RETAIL C END_A - STORY GROUND,hourly; !- [J]
Output:Meter:Cumulative,InteriorEquipment:Electricity:Zone:ZONE RETAIL RETAIL C END_A - STORY GROUND,hourly; !- [J]
Output:Meter,EnergyTransfer:Facility,hourly; !- [J]
Output:Meter:Cumulative,EnergyTransfer:Facility,hourly; !- [J]
Output:Meter,EnergyTransfer:Building,hourly; !- [J]
Output:Meter:Cumulative,EnergyTransfer:Building,hourly; !- [J]
Output:Meter,EnergyTransfer:Zone:ZONE RETAIL BACK_SPACE A  - STORY GROUND,hourly; !- [J]
Output:Meter:Cumulative,EnergyTransfer:Zone:ZONE RETAIL BACK_SPACE A  - STORY GROUND,hourly; !- [J]
Output:Meter,Heating:EnergyTransfer,hourly; !- [J]
Output:Meter:Cumulative,Heating:EnergyTransfer,hourly; !- [J]
Output:Meter,Heating:EnergyTransfer:Zone:ZONE RETAIL BACK_SPACE A  - STORY GROUND,hourly; !- [J]
Output:Meter:Cumulative,Heating:EnergyTransfer:Zone:ZONE RETAIL BACK_SPACE A  - STORY GROUND,hourly; !- [J]
Output:Meter,Cooling:EnergyTransfer,hourly; !- [J]
Output:Meter:Cumulative,Cooling:EnergyTransfer,hourly; !- [J]
Output:Meter,Cooling:EnergyTransfer:Zone:ZONE RETAIL BACK_SPACE A  - STORY GROUND,hourly; !- [J]
Output:Meter:Cumulative,Cooling:EnergyTransfer:Zone:ZONE RETAIL BACK_SPACE A  - STORY GROUND,hourly; !- [J]
Output:Meter,EnergyTransfer:Zone:ZONE RETAIL BACK_SPACE A END_B - STORY GROUND,hourly; !- [J]
Output:Meter:Cumulative,EnergyTransfer:Zone:ZONE RETAIL BACK_SPACE A END_B - STORY GROUND,hourly; !- [J]
Output:Meter,Heating:EnergyTransfer:Zone:ZONE RETAIL BACK_SPACE A END_B - STORY GROUND,hourly; !- [J]
Output:Meter:Cumulative,Heating:EnergyTransfer:Zone:ZONE RETAIL BACK_SPACE A END_B - STORY GROUND,hourly; !- [J]
Output:Meter,Cooling:EnergyTransfer:Zone:ZONE RETAIL BACK_SPACE A END_B - STORY GROUND,hourly; !- [J]
Output:Meter:Cumulative,Cooling:EnergyTransfer:Zone:ZONE RETAIL BACK_SPACE A END_B - STORY GROUND,hourly; !- [J]
Output:Meter,EnergyTransfer:Zone:ZONE RETAIL BACK_SPACE B  - STORY GROUND,hourly; !- [J]
Output:Meter:Cumulative,EnergyTransfer:Zone:ZONE RETAIL BACK_SPACE B  - STORY GROUND,hourly; !- [J]
Output:Meter,Heating:EnergyTransfer:Zone:ZONE RETAIL BACK_SPACE B  - STORY GROUND,hourly; !- [J]
Output:Meter:Cumulative,Heating:EnergyTransfer:Zone:ZONE RETAIL BACK_SPACE B  - STORY GROUND,hourly; !- [J]
Output:Meter,Cooling:EnergyTransfer:Zone:ZONE RETAIL BACK_SPACE B  - STORY GROUND,hourly; !- [J]
Output:Meter:Cumulative,Cooling:EnergyTransfer:Zone:ZONE RETAIL BACK_SPACE B  - STORY GROUND,hourly; !- [J]
Output:Meter,EnergyTransfer:Zone:ZONE RETAIL BACK_SPACE B END_B - STORY GROUND,hourly; !- [J]
Output:Meter:Cumulative,EnergyTransfer:Zone:ZONE RETAIL BACK_SPACE B END_B - STORY GROUND,hourly; !- [J]
Output:Meter,Heating:EnergyTransfer:Zone:ZONE RETAIL BACK_SPACE B END_B - STORY GROUND,hourly; !- [J]
Output:Meter:Cumulative,Heating:EnergyTransfer:Zone:ZONE RETAIL BACK_SPACE B END_B - STORY GROUND,hourly; !- [J]
Output:Meter,Cooling:EnergyTransfer:Zone:ZONE RETAIL BACK_SPACE B END_B - STORY GROUND,hourly; !- [J]
Output:Meter:Cumulative,Cooling:EnergyTransfer:Zone:ZONE RETAIL BACK_SPACE B END_B - STORY GROUND,hourly; !- [J]
Output:Meter,EnergyTransfer:Zone:ZONE RETAIL BACK_SPACE C  - STORY GROUND,hourly; !- [J]
Output:Meter:Cumulative,EnergyTransfer:Zone:ZONE RETAIL BACK_SPACE C  - STORY GROUND,hourly; !- [J]
Output:Meter,Heating:EnergyTransfer:Zone:ZONE RETAIL BACK_SPACE C  - STORY GROUND,hourly; !- [J]
Output:Meter:Cumulative,Heating:EnergyTransfer:Zone:ZONE RETAIL BACK_SPACE C  - STORY GROUND,hourly; !- [J]
Output:Meter,Cooling:EnergyTransfer:Zone:ZONE RETAIL BACK_SPACE C  - STORY GROUND,hourly; !- [J]
Output:Meter:Cumulative,Cooling:EnergyTransfer:Zone:ZONE RETAIL BACK_SPACE C  - STORY GROUND,hourly; !- [J]
Output:Meter,EnergyTransfer:Zone:ZONE RETAIL BACK_SPACE C END_B - STORY GROUND,hourly; !- [J]
Output:Meter:Cumulative,EnergyTransfer:Zone:ZONE RETAIL BACK_SPACE C END_B - STORY GROUND,hourly; !- [J]
Output:Meter,Heating:EnergyTransfer:Zone:ZONE RETAIL BACK_SPACE C END_B - STORY GROUND,hourly; !- [J]
Output:Meter:Cumulative,Heating:EnergyTransfer:Zone:ZONE RETAIL BACK_SPACE C END_B - STORY GROUND,hourly; !- [J]
Output:Meter,Cooling:EnergyTransfer:Zone:ZONE RETAIL BACK_SPACE C END_B - STORY GROUND,hourly; !- [J]
Output:Meter:Cumulative,Cooling:EnergyTransfer:Zone:ZONE RETAIL BACK_SPACE C END_B - STORY GROUND,hourly; !- [J]
Output:Meter,EnergyTransfer:Zone:ZONE RETAIL ENTRY A  - STORY GROUND,hourly; !- [J]
Output:Meter:Cumulative,EnergyTransfer:Zone:ZONE RETAIL ENTRY A  - STORY GROUND,hourly; !- [J]
Output:Meter,Heating:EnergyTransfer:Zone:ZONE RETAIL ENTRY A  - STORY GROUND,hourly; !- [J]
Output:Meter:Cumulative,Heating:EnergyTransfer:Zone:ZONE RETAIL ENTRY A  - STORY GROUND,hourly; !- [J]
Output:Meter,Cooling:EnergyTransfer:Zone:ZONE RETAIL ENTRY A  - STORY GROUND,hourly; !- [J]
Output:Meter:Cumulative,Cooling:EnergyTransfer:Zone:ZONE RETAIL ENTRY A  - STORY GROUND,hourly; !- [J]
Output:Meter,EnergyTransfer:Zone:ZONE RETAIL ENTRY B  - STORY GROUND,hourly; !- [J]
Output:Meter:Cumulative,EnergyTransfer:Zone:ZONE RETAIL ENTRY B  - STORY GROUND,hourly; !- [J]
Output:Meter,Heating:EnergyTransfer:Zone:ZONE RETAIL ENTRY B  - STORY GROUND,hourly; !- [J]
Output:Meter:Cumulative,Heating:EnergyTransfer:Zone:ZONE RETAIL ENTRY B  - STORY GROUND,hourly; !- [J]
Output:Meter,Cooling:EnergyTransfer:Zone:ZONE RETAIL ENTRY B  - STORY GROUND,hourly; !- [J]
Output:Meter:Cumulative,Cooling:EnergyTransfer:Zone:ZONE RETAIL ENTRY B  - STORY GROUND,hourly; !- [J]
Output:Meter,EnergyTransfer:Zone:ZONE RETAIL ENTRY C  - STORY GROUND,hourly; !- [J]
Output:Meter:Cumulative,EnergyTransfer:Zone:ZONE RETAIL ENTRY C  - STORY GROUND,hourly; !- [J]
Output:Meter,Heating:EnergyTransfer:Zone:ZONE RETAIL ENTRY C  - STORY GROUND,hourly; !- [J]
Output:Meter:Cumulative,Heating:EnergyTransfer:Zone:ZONE RETAIL ENTRY C  - STORY GROUND,hourly; !- [J]
Output:Meter,Cooling:EnergyTransfer:Zone:ZONE RETAIL ENTRY C  - STORY GROUND,hourly; !- [J]
Output:Meter:Cumulative,Cooling:EnergyTransfer:Zone:ZONE RETAIL ENTRY C  - STORY GROUND,hourly; !- [J]
Output:Meter,EnergyTransfer:Zone:ZONE RETAIL POINT_OF_SALE A  - STORY GROUND,hourly; !- [J]
Output:Meter:Cumulative,EnergyTransfer:Zone:ZONE RETAIL POINT_OF_SALE A  - STORY GROUND,hourly; !- [J]
Output:Meter,Heating:EnergyTransfer:Zone:ZONE RETAIL POINT_OF_SALE A  - STORY GROUND,hourly; !- [J]
Output:Meter:Cumulative,Heating:EnergyTransfer:Zone:ZONE RETAIL POINT_OF_SALE A  - STORY GROUND,hourly; !- [J]
Output:Meter,Cooling:EnergyTransfer:Zone:ZONE RETAIL POINT_OF_SALE A  - STORY GROUND,hourly; !- [J]
Output:Meter:Cumulative,Cooling:EnergyTransfer:Zone:ZONE RETAIL POINT_OF_SALE A  - STORY GROUND,hourly; !- [J]
Output:Meter,EnergyTransfer:Zone:ZONE RETAIL POINT_OF_SALE B  - STORY GROUND,hourly; !- [J]
Output:Meter:Cumulative,EnergyTransfer:Zone:ZONE RETAIL POINT_OF_SALE B  - STORY GROUND,hourly; !- [J]
Output:Meter,Heating:EnergyTransfer:Zone:ZONE RETAIL POINT_OF_SALE B  - STORY GROUND,hourly; !- [J]
Output:Meter:Cumulative,Heating:EnergyTransfer:Zone:ZONE RETAIL POINT_OF_SALE B  - STORY GROUND,hourly; !- [J]
Output:Meter,Cooling:EnergyTransfer:Zone:ZONE RETAIL POINT_OF_SALE B  - STORY GROUND,hourly; !- [J]
Output:Meter:Cumulative,Cooling:EnergyTransfer:Zone:ZONE RETAIL POINT_OF_SALE B  - STORY GROUND,hourly; !- [J]
Output:Meter,EnergyTransfer:Zone:ZONE RETAIL POINT_OF_SALE C  - STORY GROUND,hourly; !- [J]
Output:Meter:Cumulative,EnergyTransfer:Zone:ZONE RETAIL POINT_OF_SALE C  - STORY GROUND,hourly; !- [J]
Output:Meter,Heating:EnergyTransfer:Zone:ZONE RETAIL POINT_OF_SALE C  - STORY GROUND,hourly; !- [J]
Output:Meter:Cumulative,Heating:EnergyTransfer:Zone:ZONE RETAIL POINT_OF_SALE C  - STORY GROUND,hourly; !- [J]
Output:Meter,Cooling:EnergyTransfer:Zone:ZONE RETAIL POINT_OF_SALE C  - STORY GROUND,hourly; !- [J]
Output:Meter:Cumulative,Cooling:EnergyTransfer:Zone:ZONE RETAIL POINT_OF_SALE C  - STORY GROUND,hourly; !- [J]
Output:Meter,EnergyTransfer:Zone:ZONE RETAIL RETAIL A  - STORY GROUND,hourly; !- [J]
Output:Meter:Cumulative,EnergyTransfer:Zone:ZONE RETAIL RETAIL A  - STORY GROUND,hourly; !- [J]
Output:Meter,Heating:EnergyTransfer:Zone:ZONE RETAIL RETAIL A  - STORY GROUND,hourly; !- [J]
Output:Meter:Cumulative,Heating:EnergyTransfer:Zone:ZONE RETAIL RETAIL A  - STORY GROUND,hourly; !- [J]
Output:Meter,Cooling:EnergyTransfer:Zone:ZONE RETAIL RETAIL A  - STORY GROUND,hourly; !- [J]
Output:Meter:Cumulative,Cooling:EnergyTransfer:Zone:ZONE RETAIL RETAIL A  - STORY GROUND,hourly; !- [J]
Output:Meter,EnergyTransfer:Zone:ZONE RETAIL RETAIL A END_A - STORY GROUND,hourly; !- [J]
Output:Meter:Cumulative,EnergyTransfer:Zone:ZONE RETAIL RETAIL A END_A - STORY GROUND,hourly; !- [J]
Output:Meter,Heating:EnergyTransfer:Zone:ZONE RETAIL RETAIL A END_A - STORY GROUND,hourly; !- [J]
Output:Meter:Cumulative,Heating:EnergyTransfer:Zone:ZONE RETAIL RETAIL A END_A - STORY GROUND,hourly; !- [J]
Output:Meter,Cooling:EnergyTransfer:Zone:ZONE RETAIL RETAIL A END_A - STORY GROUND,hourly; !- [J]
Output:Meter:Cumulative,Cooling:EnergyTransfer:Zone:ZONE RETAIL RETAIL A END_A - STORY GROUND,hourly; !- [J]
Output:Meter,EnergyTransfer:Zone:ZONE RETAIL RETAIL B  - STORY GROUND,hourly; !- [J]
Output:Meter:Cumulative,EnergyTransfer:Zone:ZONE RETAIL RETAIL B  - STORY GROUND,hourly; !- [J]
Output:Meter,Heating:EnergyTransfer:Zone:ZONE RETAIL RETAIL B  - STORY GROUND,hourly; !- [J]
Output:Meter:Cumulative,Heating:EnergyTransfer:Zone:ZONE RETAIL RETAIL B  - STORY GROUND,hourly; !- [J]
Output:Meter,Cooling:EnergyTransfer:Zone:ZONE RETAIL RETAIL B  - STORY GROUND,hourly; !- [J]
Output:Meter:Cumulative,Cooling:EnergyTransfer:Zone:ZONE RETAIL RETAIL B  - STORY GROUND,hourly; !- [J]
Output:Meter,EnergyTransfer:Zone:ZONE RETAIL RETAIL B END_A - STORY GROUND,hourly; !- [J]
Output:Meter:Cumulative,EnergyTransfer:Zone:ZONE RETAIL RETAIL B END_A - STORY GROUND,hourly; !- [J]
Output:Meter,Heating:EnergyTransfer:Zone:ZONE RETAIL RETAIL B END_A - STORY GROUND,hourly; !- [J]
Output:Meter:Cumulative,Heating:EnergyTransfer:Zone:ZONE RETAIL RETAIL B END_A - STORY GROUND,hourly; !- [J]
Output:Meter,Cooling:EnergyTransfer:Zone:ZONE RETAIL RETAIL B END_A - STORY GROUND,hourly; !- [J]
Output:Meter:Cumulative,Cooling:EnergyTransfer:Zone:ZONE RETAIL RETAIL B END_A - STORY GROUND,hourly; !- [J]
Output:Meter,EnergyTransfer:Zone:ZONE RETAIL RETAIL C  - STORY GROUND,hourly; !- [J]
Output:Meter:Cumulative,EnergyTransfer:Zone:ZONE RETAIL RETAIL C  - STORY GROUND,hourly; !- [J]
Output:Meter,Heating:EnergyTransfer:Zone:ZONE RETAIL RETAIL C  - STORY GROUND,hourly; !- [J]
Output:Meter:Cumulative,Heating:EnergyTransfer:Zone:ZONE RETAIL RETAIL C  - STORY GROUND,hourly; !- [J]
Output:Meter,Cooling:EnergyTransfer:Zone:ZONE RETAIL RETAIL C  - STORY GROUND,hourly; !- [J]
Output:Meter:Cumulative,Cooling:EnergyTransfer:Zone:ZONE RETAIL RETAIL C  - STORY GROUND,hourly; !- [J]
Output:Meter,EnergyTransfer:Zone:ZONE RETAIL RETAIL C END_A - STORY GROUND,hourly; !- [J]
Output:Meter:Cumulative,EnergyTransfer:Zone:ZONE RETAIL RETAIL C END_A - STORY GROUND,hourly; !- [J]
Output:Meter,Heating:EnergyTransfer:Zone:ZONE RETAIL RETAIL C END_A - STORY GROUND,hourly; !- [J]
Output:Meter:Cumulative,Heating:EnergyTransfer:Zone:ZONE RETAIL RETAIL C END_A - STORY GROUND,hourly; !- [J]
Output:Meter,Cooling:EnergyTransfer:Zone:ZONE RETAIL RETAIL C END_A - STORY GROUND,hourly; !- [J]
Output:Meter:Cumulative,Cooling:EnergyTransfer:Zone:ZONE RETAIL RETAIL C END_A - STORY GROUND,hourly; !- [J]
Output:Meter,ElectricityPurchased:Facility,hourly; !- [J]
Output:Meter:Cumulative,ElectricityPurchased:Facility,hourly; !- [J]
Output:Meter,ElectricityPurchased:Plant,hourly; !- [J]
Output:Meter:Cumulative,ElectricityPurchased:Plant,hourly; !- [J]
Output:Meter,Cogeneration:ElectricityPurchased,hourly; !- [J]
Output:Meter:Cumulative,Cogeneration:ElectricityPurchased,hourly; !- [J]
Output:Meter,ElectricitySurplusSold:Facility,hourly; !- [J]
Output:Meter:Cumulative,ElectricitySurplusSold:Facility,hourly; !- [J]
Output:Meter,ElectricitySurplusSold:Plant,hourly; !- [J]
Output:Meter:Cumulative,ElectricitySurplusSold:Plant,hourly; !- [J]
Output:Meter,Cogeneration:ElectricitySurplusSold,hourly; !- [J]
Output:Meter:Cumulative,Cogeneration:ElectricitySurplusSold,hourly; !- [J]
Output:Meter,ElectricityNet:Facility,hourly; !- [J]
Output:Meter:Cumulative,ElectricityNet:Facility,hourly; !- [J]
Output:Meter,ElectricityNet:Plant,hourly; !- [J]
Output:Meter:Cumulative,ElectricityNet:Plant,hourly; !- [J]
Output:Meter,Cogeneration:ElectricityNet,hourly; !- [J]
Output:Meter:Cumulative,Cogeneration:ElectricityNet,hourly; !- [J]
Output:Meter,Electricity:HVAC,hourly; !- [J]
Output:Meter:Cumulative,Electricity:HVAC,hourly; !- [J]
Output:Meter,Fans:Electricity,hourly; !- [J]
Output:Meter:Cumulative,Fans:Electricity,hourly; !- [J]
Output:Meter,General:Fans:Electricity,hourly; !- [J]
Output:Meter:Cumulative,General:Fans:Electricity,hourly; !- [J]
Output:Meter,ExteriorLights:Electricity,hourly; !- [J]
Output:Meter:Cumulative,ExteriorLights:Electricity,hourly; !- [J]
Output:Meter,Building Facades:ExteriorLights:Electricity,hourly; !- [J]
Output:Meter:Cumulative,Building Facades:ExteriorLights:Electricity,hourly; !- [J]
Output:Meter,Main Entries:ExteriorLights:Electricity,hourly; !- [J]
Output:Meter:Cumulative,Main Entries:ExteriorLights:Electricity,hourly; !- [J]
Output:Meter,Other Doors:ExteriorLights:Electricity,hourly; !- [J]
Output:Meter:Cumulative,Other Doors:ExteriorLights:Electricity,hourly; !- [J]
Output:Meter,Parking Areas and Drives:ExteriorLights:Electricity,hourly; !- [J]
Output:Meter:Cumulative,Parking Areas and Drives:ExteriorLights:Electricity,hourly; !- [J]
Output:Meter,EnergyTransfer:HVAC,hourly; !- [J]
Output:Meter:Cumulative,EnergyTransfer:HVAC,hourly; !- [J]
Output:Meter,CoolingCoils:EnergyTransfer,hourly; !- [J]
Output:Meter:Cumulative,CoolingCoils:EnergyTransfer,hourly; !- [J]
Output:Meter,Cooling:Electricity,hourly; !- [J]
Output:Meter:Cumulative,Cooling:Electricity,hourly; !- [J]
Output:Meter,HeatingCoils:EnergyTransfer,hourly; !- [J]
Output:Meter:Cumulative,HeatingCoils:EnergyTransfer,hourly; !- [J]
Output:Meter,Heating:Electricity,hourly; !- [J]
Output:Meter:Cumulative,Heating:Electricity,hourly; !- [J]
Output:Meter,Gas:Facility,hourly; !- [J]
Output:Meter:Cumulative,Gas:Facility,hourly; !- [J]
Output:Meter,Gas:HVAC,hourly; !- [J]
Output:Meter:Cumulative,Gas:HVAC,hourly; !- [J]
Output:Meter,Heating:Gas,hourly; !- [J]
Output:Meter:Cumulative,Heating:Gas,hourly; !- [J]
Output:Meter,Electricity:Plant,hourly; !- [J]
Output:Meter:Cumulative,Electricity:Plant,hourly; !- [J]
Output:Meter,Carbon Equivalent:Facility,hourly; !- [kg]
Output:Meter:Cumulative,Carbon Equivalent:Facility,hourly; !- [kg]
Output:Meter,CarbonEquivalentEmissions:Carbon Equivalent,hourly; !- [kg]
Output:Meter:Cumulative,CarbonEquivalentEmissions:Carbon Equivalent,hourly; !- [kg]
