Program Version,EnergyPlus, Version 8.7.0-78a111df4a, YMD=2018.03.01 18:55
! This file shows details about the branches, nodes, and other
! elements of the flow connections.
! This file is intended for use in "debugging" potential problems
! that may also be detected by the program, but may be more easily
! identified by "eye".
! This file is also intended to support software which draws a
! schematic diagram of the HVAC system.
! ===============================================================
! #Nodes,<Number of Unique Nodes>
 #Nodes,83
! <Node>,<NodeNumber>,<Node Name>,<Node Fluid Type>,<# Times Node Referenced After Definition>
 Node,1,NODE 38,Air,4
 Node,2,NODE 74,Air,4
 Node,3,NODE 26,Air,4
 Node,4,NODE 50,Air,4
 Node,5,NODE 62,Air,4
 Node,6,NODE 35,Air,12
 Node,7,NODE 36,Air,3
 Node,8,NODE 71,Air,12
 Node,9,NODE 72,Air,3
 Node,10,NODE 23,Air,12
 Node,11,NODE 24,Air,3
 Node,12,NODE 47,Air,12
 Node,13,NODE 48,Air,3
 Node,14,NODE 59,Air,12
 Node,15,NODE 60,Air,3
 Node,16,NODE 34,Air,3
 Node,17,NODE 44,Air,6
 Node,18,NODE 43,Air,6
 Node,19,NODE 42,Air,5
 Node,20,NODE 41,Air,9
 Node,21,NODE 70,Air,3
 Node,22,NODE 80,Air,6
 Node,23,NODE 79,Air,6
 Node,24,NODE 78,Air,5
 Node,25,NODE 77,Air,9
 Node,26,NODE 22,Air,3
 Node,27,NODE 32,Air,6
 Node,28,NODE 31,Air,6
 Node,29,NODE 30,Air,5
 Node,30,NODE 29,Air,9
 Node,31,NODE 46,Air,3
 Node,32,NODE 56,Air,6
 Node,33,NODE 55,Air,6
 Node,34,NODE 54,Air,5
 Node,35,NODE 53,Air,9
 Node,36,NODE 58,Air,3
 Node,37,NODE 68,Air,6
 Node,38,NODE 67,Air,6
 Node,39,NODE 66,Air,5
 Node,40,NODE 65,Air,9
 Node,41,NODE 6,Water,2
 Node,42,NODE 12,Water,1
 Node,43,NODE 8,Water,1
 Node,44,NODE 13,Water,1
 Node,45,NODE 14,Water,1
 Node,46,NODE 15,Water,1
 Node,47,NODE 17,Water,1
 Node,48,NODE 7,Water,4
 Node,49,NODE 9,Water,2
 Node,50,NODE 18,Water,1
 Node,51,NODE 11,Water,1
 Node,52,NODE 16,Water,1
 Node,53,NODE 20,Water,1
 Node,54,NODE 21,Water,1
 Node,55,OFFICE SHARED SERVICE WATER LOOP DEMAND BYPASS PIPE INLET NODE,Water,1
 Node,56,OFFICE SHARED SERVICE WATER LOOP DEMAND BYPASS PIPE OUTLET NODE,Water,1
 Node,57,NODE 19,Water,1
 Node,58,NODE 10,Water,2
 Node,59,NODE 39,Air,2
 Node,60,NODE 75,Air,2
 Node,61,NODE 27,Air,2
 Node,62,NODE 51,Air,2
 Node,63,NODE 63,Air,2
 Node,64,NODE 5,Air,1
 Node,65,NODE 3,Air,1
 Node,66,NODE 2,Air,1
 Node,67,NODE 4,Air,1
 Node,68,NODE 1,Air,1
 Node,69,NODE 45,Air,1
 Node,70,NODE 81,Air,1
 Node,71,NODE 33,Air,1
 Node,72,NODE 57,Air,1
 Node,73,NODE 69,Air,1
 Node,74,NODE 37,Air,2
 Node,75,NODE 73,Air,2
 Node,76,NODE 25,Air,2
 Node,77,NODE 49,Air,2
 Node,78,NODE 61,Air,2
 Node,79,NODE 40,Air,1
 Node,80,NODE 76,Air,1
 Node,81,NODE 28,Air,1
 Node,82,NODE 52,Air,1
 Node,83,NODE 64,Air,1
! ===============================================================
! <#Branch Lists>,<Number of Branch Lists>
 #Branch Lists,7
! <Branch List>,<Branch List Count>,<Branch List Name>,<Loop Name>,<Loop Type>,<Number of Branches>
! <Branch>,<Branch Count>,<Branch Name>,<Loop Name>,<Loop Type>,<Branch Inlet Node Name>,<Branch Outlet Node Name>
 Branch List,1,ZONE CORE SPACE - STORY GROUND PSZ-AC SUPPLY BRANCHES,ZONE CORE SPACE - STORY GROUND PSZ-AC,Air,1
   Branch,1,ZONE CORE SPACE - STORY GROUND PSZ-AC MAIN BRANCH,ZONE CORE SPACE - STORY GROUND PSZ-AC,Air,NODE 34,NODE 35
 Branch List,2,ZONE EAST PERIMETER SPACE - STORY GROUND PSZ-AC SUPPLY BRANCHES,ZONE EAST PERIMETER SPACE - STORY GROUND PSZ-AC,Air,1
   Branch,1,ZONE EAST PERIMETER SPACE - STORY GROUND PSZ-AC MAIN BRANCH,ZONE EAST PERIMETER SPACE - STORY GROUND PSZ-AC,Air,NODE 70,NODE 71
 Branch List,3,ZONE NORTH PERIMETER SPACE - STORY GROUND PSZ-AC SUPPLY BRANCHES,ZONE NORTH PERIMETER SPACE - STORY GROUND PSZ-AC,Air,1
   Branch,1,ZONE NORTH PERIMETER SPACE - STORY GROUND PSZ-AC MAIN BRANCH,ZONE NORTH PERIMETER SPACE - STORY GROUND PSZ-AC,Air,NODE 22,NODE 23
 Branch List,4,ZONE SOUTH PERIMETER SPACE - STORY GROUND PSZ-AC SUPPLY BRANCHES,ZONE SOUTH PERIMETER SPACE - STORY GROUND PSZ-AC,Air,1
   Branch,1,ZONE SOUTH PERIMETER SPACE - STORY GROUND PSZ-AC MAIN BRANCH,ZONE SOUTH PERIMETER SPACE - STORY GROUND PSZ-AC,Air,NODE 46,NODE 47
 Branch List,5,ZONE WEST PERIMETER SPACE - STORY GROUND PSZ-AC SUPPLY BRANCHES,ZONE WEST PERIMETER SPACE - STORY GROUND PSZ-AC,Air,1
   Branch,1,ZONE WEST PERIMETER SPACE - STORY GROUND PSZ-AC MAIN BRANCH,ZONE WEST PERIMETER SPACE - STORY GROUND PSZ-AC,Air,NODE 58,NODE 59
 Branch List,6,OFFICE SHARED SERVICE WATER LOOP SUPPLY BRANCHES,OFFICE SHARED SERVICE WATER LOOP,Plant Supply,4
   Branch,1,OFFICE SHARED SERVICE WATER LOOP SUPPLY INLET BRANCH,OFFICE SHARED SERVICE WATER LOOP,Plant Supply,NODE 6,NODE 12
   Branch,2,OFFICE SHARED SERVICE WATER LOOP SUPPLY BRANCH 1,OFFICE SHARED SERVICE WATER LOOP,Plant Supply,NODE 8,NODE 13
   Branch,3,OFFICE SHARED SERVICE WATER LOOP SUPPLY BRANCH 2,OFFICE SHARED SERVICE WATER LOOP,Plant Supply,NODE 14,NODE 15
   Branch,4,OFFICE SHARED SERVICE WATER LOOP SUPPLY OUTLET BRANCH,OFFICE SHARED SERVICE WATER LOOP,Plant Supply,NODE 17,NODE 7
 Branch List,7,OFFICE SHARED SERVICE WATER LOOP DEMAND BRANCHES,OFFICE SHARED SERVICE WATER LOOP,Plant Demand,5
   Branch,1,OFFICE SHARED SERVICE WATER LOOP DEMAND INLET BRANCH,OFFICE SHARED SERVICE WATER LOOP,Plant Demand,NODE 9,NODE 18
   Branch,2,OFFICE SHARED SERVICE WATER LOOP DEMAND BRANCH 1,OFFICE SHARED SERVICE WATER LOOP,Plant Demand,NODE 11,NODE 16
   Branch,3,OFFICE SHARED SERVICE WATER LOOP DEMAND BRANCH 2,OFFICE SHARED SERVICE WATER LOOP,Plant Demand,NODE 20,NODE 21
   Branch,4,OFFICE SHARED SERVICE WATER LOOP DEMAND BYPASS BRANCH,OFFICE SHARED SERVICE WATER LOOP,Plant Demand,OFFICE SHARED SERVICE WATER LOOP DEMAND BYPASS PIPE INLET NODE,OFFICE SHARED SERVICE WATER LOOP DEMAND BYPASS PIPE OUTLET NODE
   Branch,5,OFFICE SHARED SERVICE WATER LOOP DEMAND OUTLET BRANCH,OFFICE SHARED SERVICE WATER LOOP,Plant Demand,NODE 19,NODE 10
! ===============================================================
! <#Supply Air Paths>,<Number of Supply Air Paths>
 #Supply Air Paths,5
! <Supply Air Path>,<Supply Air Path Count>,<Supply Air Path Name>,<AirLoopHVAC Name>
! <#Components on Supply Air Path>,<Number of Components>
! <Supply Air Path Component>,<Component Count>,<Component Type>,<Component Name>,<AirLoopHVAC Name>
! <#Outlet Nodes on Supply Air Path Component>,<Number of Nodes>
! <Supply Air Path Component Nodes>,<Node Count>,<Component Type>,<Component Name>,<Inlet Node Name>,<Outlet Node Name>,<AirLoopHVAC Name>
 Supply Air Path,1,ZONE CORE SPACE - STORY GROUND PSZ-AC NODE 36 SUPPLY PATH,ZONE CORE SPACE - STORY GROUND PSZ-AC
   #Components on Supply Air Path,1
   Supply Air Path Component,1,AIRLOOPHVAC:ZONESPLITTER,AIR LOOP HVAC ZONE SPLITTER 2,ZONE CORE SPACE - STORY GROUND PSZ-AC
     #Outlet Nodes on Supply Air Path Component,1
     Supply Air Path Component Nodes,1,AIRLOOPHVAC:ZONESPLITTER,AIR LOOP HVAC ZONE SPLITTER 2,NODE 36,NODE 38,ZONE CORE SPACE - STORY GROUND PSZ-AC
! <#Nodes on Supply Air Path>,<Number of Nodes>
! <Supply Air Path Node>,<Node Type>,<Node Count>,<Node Name>,<AirLoopHVAC Name>
#Nodes on Supply Air Path,2
   Supply Air Path Node,Inlet Node,1,NODE 36,ZONE CORE SPACE - STORY GROUND PSZ-AC
   Supply Air Path Node,Outlet Node,2,NODE 38,ZONE CORE SPACE - STORY GROUND PSZ-AC
 Supply Air Path,2,ZONE EAST PERIMETER SPACE - STORY GROUND PSZ-AC NODE 72 SUPPLY PATH,ZONE EAST PERIMETER SPACE - STORY GROUND PSZ-AC
   #Components on Supply Air Path,1
   Supply Air Path Component,1,AIRLOOPHVAC:ZONESPLITTER,AIR LOOP HVAC ZONE SPLITTER 5,ZONE EAST PERIMETER SPACE - STORY GROUND PSZ-AC
     #Outlet Nodes on Supply Air Path Component,1
     Supply Air Path Component Nodes,1,AIRLOOPHVAC:ZONESPLITTER,AIR LOOP HVAC ZONE SPLITTER 5,NODE 72,NODE 74,ZONE EAST PERIMETER SPACE - STORY GROUND PSZ-AC
! <#Nodes on Supply Air Path>,<Number of Nodes>
! <Supply Air Path Node>,<Node Type>,<Node Count>,<Node Name>,<AirLoopHVAC Name>
#Nodes on Supply Air Path,2
   Supply Air Path Node,Inlet Node,1,NODE 72,ZONE EAST PERIMETER SPACE - STORY GROUND PSZ-AC
   Supply Air Path Node,Outlet Node,2,NODE 74,ZONE EAST PERIMETER SPACE - STORY GROUND PSZ-AC
 Supply Air Path,3,ZONE NORTH PERIMETER SPACE - STORY GROUND PSZ-AC NODE 24 SUPPLY PATH,ZONE NORTH PERIMETER SPACE - STORY GROUND PSZ-AC
   #Components on Supply Air Path,1
   Supply Air Path Component,1,AIRLOOPHVAC:ZONESPLITTER,AIR LOOP HVAC ZONE SPLITTER 1,ZONE NORTH PERIMETER SPACE - STORY GROUND PSZ-AC
     #Outlet Nodes on Supply Air Path Component,1
     Supply Air Path Component Nodes,1,AIRLOOPHVAC:ZONESPLITTER,AIR LOOP HVAC ZONE SPLITTER 1,NODE 24,NODE 26,ZONE NORTH PERIMETER SPACE - STORY GROUND PSZ-AC
! <#Nodes on Supply Air Path>,<Number of Nodes>
! <Supply Air Path Node>,<Node Type>,<Node Count>,<Node Name>,<AirLoopHVAC Name>
#Nodes on Supply Air Path,2
   Supply Air Path Node,Inlet Node,1,NODE 24,ZONE NORTH PERIMETER SPACE - STORY GROUND PSZ-AC
   Supply Air Path Node,Outlet Node,2,NODE 26,ZONE NORTH PERIMETER SPACE - STORY GROUND PSZ-AC
 Supply Air Path,4,ZONE SOUTH PERIMETER SPACE - STORY GROUND PSZ-AC NODE 48 SUPPLY PATH,ZONE SOUTH PERIMETER SPACE - STORY GROUND PSZ-AC
   #Components on Supply Air Path,1
   Supply Air Path Component,1,AIRLOOPHVAC:ZONESPLITTER,AIR LOOP HVAC ZONE SPLITTER 3,ZONE SOUTH PERIMETER SPACE - STORY GROUND PSZ-AC
     #Outlet Nodes on Supply Air Path Component,1
     Supply Air Path Component Nodes,1,AIRLOOPHVAC:ZONESPLITTER,AIR LOOP HVAC ZONE SPLITTER 3,NODE 48,NODE 50,ZONE SOUTH PERIMETER SPACE - STORY GROUND PSZ-AC
! <#Nodes on Supply Air Path>,<Number of Nodes>
! <Supply Air Path Node>,<Node Type>,<Node Count>,<Node Name>,<AirLoopHVAC Name>
#Nodes on Supply Air Path,2
   Supply Air Path Node,Inlet Node,1,NODE 48,ZONE SOUTH PERIMETER SPACE - STORY GROUND PSZ-AC
   Supply Air Path Node,Outlet Node,2,NODE 50,ZONE SOUTH PERIMETER SPACE - STORY GROUND PSZ-AC
 Supply Air Path,5,ZONE WEST PERIMETER SPACE - STORY GROUND PSZ-AC NODE 60 SUPPLY PATH,ZONE WEST PERIMETER SPACE - STORY GROUND PSZ-AC
   #Components on Supply Air Path,1
   Supply Air Path Component,1,AIRLOOPHVAC:ZONESPLITTER,AIR LOOP HVAC ZONE SPLITTER 4,ZONE WEST PERIMETER SPACE - STORY GROUND PSZ-AC
     #Outlet Nodes on Supply Air Path Component,1
     Supply Air Path Component Nodes,1,AIRLOOPHVAC:ZONESPLITTER,AIR LOOP HVAC ZONE SPLITTER 4,NODE 60,NODE 62,ZONE WEST PERIMETER SPACE - STORY GROUND PSZ-AC
! <#Nodes on Supply Air Path>,<Number of Nodes>
! <Supply Air Path Node>,<Node Type>,<Node Count>,<Node Name>,<AirLoopHVAC Name>
#Nodes on Supply Air Path,2
   Supply Air Path Node,Inlet Node,1,NODE 60,ZONE WEST PERIMETER SPACE - STORY GROUND PSZ-AC
   Supply Air Path Node,Outlet Node,2,NODE 62,ZONE WEST PERIMETER SPACE - STORY GROUND PSZ-AC
! ===============================================================
! <#Return Air Paths>,<Number of Return Air Paths>
 #Return Air Paths,5
! <Return Air Path>,<Return Air Path Count>,<Return Air Path Name>,<AirLoopHVAC Name>
! <#Components on Return Air Path>,<Number of Components>
! <Return Air Path Component>,<Component Count>,<Component Type>,<Component Name>,<AirLoopHVAC Name>
! <#Inlet Nodes on Return Air Path Component>,<Number of Nodes>
! <Return Air Path Component Nodes>,<Node Count>,<Component Type>,<Component Name>,<Inlet Node Name>,<Outlet Node Name>,<AirLoopHVAC Name>
 Return Air Path,1,ZONE CORE SPACE - STORY GROUND PSZ-AC RETURN PATH,ZONE CORE SPACE - STORY GROUND PSZ-AC
   #Components on Return Air Path,1
   Return Air Path Component,1,AIRLOOPHVAC:ZONEMIXER,AIR LOOP HVAC ZONE MIXER 2,ZONE CORE SPACE - STORY GROUND PSZ-AC
     #Inlet Nodes on Return Air Path Component,1
     Return Air Path Component Nodes,1,AIRLOOPHVAC:ZONEMIXER,AIR LOOP HVAC ZONE MIXER 2,NODE 45,NODE 37,ZONE CORE SPACE - STORY GROUND PSZ-AC
! <#Nodes on Return Air Path>,<Number of Nodes>
! <Return Air Path Node>,<Node Type>,<Node Count>,<Node Name>,<AirLoopHVAC Name>
   #Nodes on Return Air Path,2
   Return Air Path Node,Outlet Node,1,NODE 37,ZONE CORE SPACE - STORY GROUND PSZ-AC
   Return Air Path Node,Inlet Node,2,NODE 45,ZONE CORE SPACE - STORY GROUND PSZ-AC
 Return Air Path,2,ZONE EAST PERIMETER SPACE - STORY GROUND PSZ-AC RETURN PATH,ZONE EAST PERIMETER SPACE - STORY GROUND PSZ-AC
   #Components on Return Air Path,1
   Return Air Path Component,1,AIRLOOPHVAC:ZONEMIXER,AIR LOOP HVAC ZONE MIXER 5,ZONE EAST PERIMETER SPACE - STORY GROUND PSZ-AC
     #Inlet Nodes on Return Air Path Component,1
     Return Air Path Component Nodes,1,AIRLOOPHVAC:ZONEMIXER,AIR LOOP HVAC ZONE MIXER 5,NODE 81,NODE 73,ZONE EAST PERIMETER SPACE - STORY GROUND PSZ-AC
! <#Nodes on Return Air Path>,<Number of Nodes>
! <Return Air Path Node>,<Node Type>,<Node Count>,<Node Name>,<AirLoopHVAC Name>
   #Nodes on Return Air Path,2
   Return Air Path Node,Outlet Node,1,NODE 73,ZONE EAST PERIMETER SPACE - STORY GROUND PSZ-AC
   Return Air Path Node,Inlet Node,2,NODE 81,ZONE EAST PERIMETER SPACE - STORY GROUND PSZ-AC
 Return Air Path,3,ZONE NORTH PERIMETER SPACE - STORY GROUND PSZ-AC RETURN PATH,ZONE NORTH PERIMETER SPACE - STORY GROUND PSZ-AC
   #Components on Return Air Path,1
   Return Air Path Component,1,AIRLOOPHVAC:ZONEMIXER,AIR LOOP HVAC ZONE MIXER 1,ZONE NORTH PERIMETER SPACE - STORY GROUND PSZ-AC
     #Inlet Nodes on Return Air Path Component,1
     Return Air Path Component Nodes,1,AIRLOOPHVAC:ZONEMIXER,AIR LOOP HVAC ZONE MIXER 1,NODE 33,NODE 25,ZONE NORTH PERIMETER SPACE - STORY GROUND PSZ-AC
! <#Nodes on Return Air Path>,<Number of Nodes>
! <Return Air Path Node>,<Node Type>,<Node Count>,<Node Name>,<AirLoopHVAC Name>
   #Nodes on Return Air Path,2
   Return Air Path Node,Outlet Node,1,NODE 25,ZONE NORTH PERIMETER SPACE - STORY GROUND PSZ-AC
   Return Air Path Node,Inlet Node,2,NODE 33,ZONE NORTH PERIMETER SPACE - STORY GROUND PSZ-AC
 Return Air Path,4,ZONE SOUTH PERIMETER SPACE - STORY GROUND PSZ-AC RETURN PATH,ZONE SOUTH PERIMETER SPACE - STORY GROUND PSZ-AC
   #Components on Return Air Path,1
   Return Air Path Component,1,AIRLOOPHVAC:ZONEMIXER,AIR LOOP HVAC ZONE MIXER 3,ZONE SOUTH PERIMETER SPACE - STORY GROUND PSZ-AC
     #Inlet Nodes on Return Air Path Component,1
     Return Air Path Component Nodes,1,AIRLOOPHVAC:ZONEMIXER,AIR LOOP HVAC ZONE MIXER 3,NODE 57,NODE 49,ZONE SOUTH PERIMETER SPACE - STORY GROUND PSZ-AC
! <#Nodes on Return Air Path>,<Number of Nodes>
! <Return Air Path Node>,<Node Type>,<Node Count>,<Node Name>,<AirLoopHVAC Name>
   #Nodes on Return Air Path,2
   Return Air Path Node,Outlet Node,1,NODE 49,ZONE SOUTH PERIMETER SPACE - STORY GROUND PSZ-AC
   Return Air Path Node,Inlet Node,2,NODE 57,ZONE SOUTH PERIMETER SPACE - STORY GROUND PSZ-AC
 Return Air Path,5,ZONE WEST PERIMETER SPACE - STORY GROUND PSZ-AC RETURN PATH,ZONE WEST PERIMETER SPACE - STORY GROUND PSZ-AC
   #Components on Return Air Path,1
   Return Air Path Component,1,AIRLOOPHVAC:ZONEMIXER,AIR LOOP HVAC ZONE MIXER 4,ZONE WEST PERIMETER SPACE - STORY GROUND PSZ-AC
     #Inlet Nodes on Return Air Path Component,1
     Return Air Path Component Nodes,1,AIRLOOPHVAC:ZONEMIXER,AIR LOOP HVAC ZONE MIXER 4,NODE 69,NODE 61,ZONE WEST PERIMETER SPACE - STORY GROUND PSZ-AC
! <#Nodes on Return Air Path>,<Number of Nodes>
! <Return Air Path Node>,<Node Type>,<Node Count>,<Node Name>,<AirLoopHVAC Name>
   #Nodes on Return Air Path,2
   Return Air Path Node,Outlet Node,1,NODE 61,ZONE WEST PERIMETER SPACE - STORY GROUND PSZ-AC
   Return Air Path Node,Inlet Node,2,NODE 69,ZONE WEST PERIMETER SPACE - STORY GROUND PSZ-AC
! ===============================================================
! #Outdoor Air Nodes,<Number of Outdoor Air Nodes>
 #Outdoor Air Nodes,5
! <Outdoor Air Node>,<NodeNumber>,<Node Name>
 Outdoor Air Node,59,NODE 39
 Outdoor Air Node,60,NODE 75
 Outdoor Air Node,61,NODE 27
 Outdoor Air Node,62,NODE 51
 Outdoor Air Node,63,NODE 63
! ===============================================================
! <#Component Sets>,<Number of Component Sets>
 #Component Sets,44
! <Component Set>,<Component Set Count>,<Parent Object Type>,<Parent Object Name>,<Component Type>,<Component Name>,<Inlet Node ID>,<Outlet Node ID>,<Description>
 Component Set,1,BRANCH,ZONE CORE SPACE - STORY GROUND PSZ-AC MAIN BRANCH,AIRLOOPHVAC:OUTDOORAIRSYSTEM,ZONE CORE SPACE - STORY GROUND PSZ-AC OA SYS,NODE 34,NODE 44,Air Nodes
 Component Set,2,BRANCH,ZONE CORE SPACE - STORY GROUND PSZ-AC MAIN BRANCH,COILSYSTEM:COOLING:DX,ZONE CORE SPACE - STORY GROUND PSZ-AC 1SPD DX AC CLG COIL 36KBTU/HR 6.8EER COILSYSTEM,NODE 44,NODE 43,Air Nodes
 Component Set,3,BRANCH,ZONE CORE SPACE - STORY GROUND PSZ-AC MAIN BRANCH,COIL:HEATING:FUEL,ZONE CORE SPACE - STORY GROUND PSZ-AC GAS HTG COIL,NODE 43,NODE 42,Air Nodes
 Component Set,4,BRANCH,ZONE CORE SPACE - STORY GROUND PSZ-AC MAIN BRANCH,COIL:HEATING:ELECTRIC,ZONE CORE SPACE - STORY GROUND PSZ-AC ELECTRIC BACKUP HTG COIL,NODE 42,NODE 41,Air Nodes
 Component Set,5,BRANCH,ZONE CORE SPACE - STORY GROUND PSZ-AC MAIN BRANCH,FAN:CONSTANTVOLUME,ZONE CORE SPACE - STORY GROUND PSZ-AC FAN,NODE 41,NODE 35,Air Nodes
 Component Set,6,BRANCH,ZONE EAST PERIMETER SPACE - STORY GROUND PSZ-AC MAIN BRANCH,AIRLOOPHVAC:OUTDOORAIRSYSTEM,ZONE EAST PERIMETER SPACE - STORY GROUND PSZ-AC OA SYS,NODE 70,NODE 80,Air Nodes
 Component Set,7,BRANCH,ZONE EAST PERIMETER SPACE - STORY GROUND PSZ-AC MAIN BRANCH,COILSYSTEM:COOLING:DX,ZONE EAST PERIMETER SPACE - STORY GROUND PSZ-AC 1SPD DX AC CLG COIL 30KBTU/HR 6.8EER COILSYSTEM,NODE 80,NODE 79,Air Nodes
 Component Set,8,BRANCH,ZONE EAST PERIMETER SPACE - STORY GROUND PSZ-AC MAIN BRANCH,COIL:HEATING:FUEL,ZONE EAST PERIMETER SPACE - STORY GROUND PSZ-AC GAS HTG COIL,NODE 79,NODE 78,Air Nodes
 Component Set,9,BRANCH,ZONE EAST PERIMETER SPACE - STORY GROUND PSZ-AC MAIN BRANCH,COIL:HEATING:ELECTRIC,ZONE EAST PERIMETER SPACE - STORY GROUND PSZ-AC ELECTRIC BACKUP HTG COIL,NODE 78,NODE 77,Air Nodes
 Component Set,10,BRANCH,ZONE EAST PERIMETER SPACE - STORY GROUND PSZ-AC MAIN BRANCH,FAN:CONSTANTVOLUME,ZONE EAST PERIMETER SPACE - STORY GROUND PSZ-AC FAN,NODE 77,NODE 71,Air Nodes
 Component Set,11,BRANCH,ZONE NORTH PERIMETER SPACE - STORY GROUND PSZ-AC MAIN BRANCH,AIRLOOPHVAC:OUTDOORAIRSYSTEM,ZONE NORTH PERIMETER SPACE - STORY GROUND PSZ-AC OA SYS,NODE 22,NODE 32,Air Nodes
 Component Set,12,BRANCH,ZONE NORTH PERIMETER SPACE - STORY GROUND PSZ-AC MAIN BRANCH,COILSYSTEM:COOLING:DX,ZONE NORTH PERIMETER SPACE - STORY GROUND PSZ-AC 1SPD DX AC CLG COIL 26KBTU/HR 6.8EER COILSYSTEM,NODE 32,NODE 31,Air Nodes
 Component Set,13,BRANCH,ZONE NORTH PERIMETER SPACE - STORY GROUND PSZ-AC MAIN BRANCH,COIL:HEATING:FUEL,ZONE NORTH PERIMETER SPACE - STORY GROUND PSZ-AC GAS HTG COIL,NODE 31,NODE 30,Air Nodes
 Component Set,14,BRANCH,ZONE NORTH PERIMETER SPACE - STORY GROUND PSZ-AC MAIN BRANCH,COIL:HEATING:ELECTRIC,ZONE NORTH PERIMETER SPACE - STORY GROUND PSZ-AC ELECTRIC BACKUP HTG COIL,NODE 30,NODE 29,Air Nodes
 Component Set,15,BRANCH,ZONE NORTH PERIMETER SPACE - STORY GROUND PSZ-AC MAIN BRANCH,FAN:CONSTANTVOLUME,ZONE NORTH PERIMETER SPACE - STORY GROUND PSZ-AC FAN,NODE 29,NODE 23,Air Nodes
 Component Set,16,BRANCH,ZONE SOUTH PERIMETER SPACE - STORY GROUND PSZ-AC MAIN BRANCH,AIRLOOPHVAC:OUTDOORAIRSYSTEM,ZONE SOUTH PERIMETER SPACE - STORY GROUND PSZ-AC OA SYS,NODE 46,NODE 56,Air Nodes
 Component Set,17,BRANCH,ZONE SOUTH PERIMETER SPACE - STORY GROUND PSZ-AC MAIN BRANCH,COILSYSTEM:COOLING:DX,ZONE SOUTH PERIMETER SPACE - STORY GROUND PSZ-AC 1SPD DX AC CLG COIL 41KBTU/HR 6.8EER COILSYSTEM,NODE 56,NODE 55,Air Nodes
 Component Set,18,BRANCH,ZONE SOUTH PERIMETER SPACE - STORY GROUND PSZ-AC MAIN BRANCH,COIL:HEATING:FUEL,ZONE SOUTH PERIMETER SPACE - STORY GROUND PSZ-AC GAS HTG COIL,NODE 55,NODE 54,Air Nodes
 Component Set,19,BRANCH,ZONE SOUTH PERIMETER SPACE - STORY GROUND PSZ-AC MAIN BRANCH,COIL:HEATING:ELECTRIC,ZONE SOUTH PERIMETER SPACE - STORY GROUND PSZ-AC ELECTRIC BACKUP HTG COIL,NODE 54,NODE 53,Air Nodes
 Component Set,20,BRANCH,ZONE SOUTH PERIMETER SPACE - STORY GROUND PSZ-AC MAIN BRANCH,FAN:CONSTANTVOLUME,ZONE SOUTH PERIMETER SPACE - STORY GROUND PSZ-AC FAN,NODE 53,NODE 47,Air Nodes
 Component Set,21,BRANCH,ZONE WEST PERIMETER SPACE - STORY GROUND PSZ-AC MAIN BRANCH,AIRLOOPHVAC:OUTDOORAIRSYSTEM,ZONE WEST PERIMETER SPACE - STORY GROUND PSZ-AC OA SYS,NODE 58,NODE 68,Air Nodes
 Component Set,22,BRANCH,ZONE WEST PERIMETER SPACE - STORY GROUND PSZ-AC MAIN BRANCH,COILSYSTEM:COOLING:DX,ZONE WEST PERIMETER SPACE - STORY GROUND PSZ-AC 1SPD DX AC CLG COIL 33KBTU/HR 6.8EER COILSYSTEM,NODE 68,NODE 67,Air Nodes
 Component Set,23,BRANCH,ZONE WEST PERIMETER SPACE - STORY GROUND PSZ-AC MAIN BRANCH,COIL:HEATING:FUEL,ZONE WEST PERIMETER SPACE - STORY GROUND PSZ-AC GAS HTG COIL,NODE 67,NODE 66,Air Nodes
 Component Set,24,BRANCH,ZONE WEST PERIMETER SPACE - STORY GROUND PSZ-AC MAIN BRANCH,COIL:HEATING:ELECTRIC,ZONE WEST PERIMETER SPACE - STORY GROUND PSZ-AC ELECTRIC BACKUP HTG COIL,NODE 66,NODE 65,Air Nodes
 Component Set,25,BRANCH,ZONE WEST PERIMETER SPACE - STORY GROUND PSZ-AC MAIN BRANCH,FAN:CONSTANTVOLUME,ZONE WEST PERIMETER SPACE - STORY GROUND PSZ-AC FAN,NODE 65,NODE 59,Air Nodes
 Component Set,26,BRANCH,OFFICE SHARED SERVICE WATER LOOP SUPPLY INLET BRANCH,PUMP:CONSTANTSPEED,SERVICE WATER LOOP PUMP,NODE 6,NODE 12,Water Nodes
 Component Set,27,BRANCH,OFFICE SHARED SERVICE WATER LOOP SUPPLY BRANCH 1,WATERHEATER:MIXED,40.0GAL GAS WATER HEATER - 2KBTU/HR 0.78 THERM EFF 0.78 THERM EFF,NODE 8,NODE 13,Use Side Water Nodes
 Component Set,28,BRANCH,OFFICE SHARED SERVICE WATER LOOP SUPPLY BRANCH 2,PIPE:ADIABATIC,PIPE ADIABATIC 1,NODE 14,NODE 15,Pipe Nodes
 Component Set,29,BRANCH,OFFICE SHARED SERVICE WATER LOOP SUPPLY OUTLET BRANCH,PIPE:ADIABATIC,PIPE ADIABATIC 3,NODE 17,NODE 7,Pipe Nodes
 Component Set,30,BRANCH,OFFICE SHARED SERVICE WATER LOOP DEMAND INLET BRANCH,PIPE:ADIABATIC,PIPE ADIABATIC 4,NODE 9,NODE 18,Pipe Nodes
 Component Set,31,BRANCH,OFFICE SHARED SERVICE WATER LOOP DEMAND BRANCH 1,PIPE:ADIABATIC,PIPE ADIABATIC 2,NODE 11,NODE 16,Pipe Nodes
 Component Set,32,BRANCH,OFFICE SHARED SERVICE WATER LOOP DEMAND BRANCH 2,WATERUSE:CONNECTIONS,OFFICE WHOLEBUILDING - SM OFFICE - CEC PRE-1978 WUC,NODE 20,NODE 21,DHW Nodes
 Component Set,33,BRANCH,OFFICE SHARED SERVICE WATER LOOP DEMAND BYPASS BRANCH,PIPE:ADIABATIC,OFFICE SHARED SERVICE WATER LOOP DEMAND BYPASS PIPE,OFFICE SHARED SERVICE WATER LOOP DEMAND BYPASS PIPE INLET NODE,OFFICE SHARED SERVICE WATER LOOP DEMAND BYPASS PIPE OUTLET NODE,Pipe Nodes
 Component Set,34,BRANCH,OFFICE SHARED SERVICE WATER LOOP DEMAND OUTLET BRANCH,PIPE:ADIABATIC,PIPE ADIABATIC 5,NODE 19,NODE 10,Pipe Nodes
 Component Set,35,AIRLOOPHVAC:OUTDOORAIRSYSTEM,ZONE CORE SPACE - STORY GROUND PSZ-AC OA SYS,OUTDOORAIR:MIXER,ZONE CORE SPACE - STORY GROUND PSZ-AC OA SYS OUTDOOR AIR MIXER,NODE 39,NODE 44,Air Nodes
 Component Set,36,AIRLOOPHVAC:OUTDOORAIRSYSTEM,ZONE EAST PERIMETER SPACE - STORY GROUND PSZ-AC OA SYS,OUTDOORAIR:MIXER,ZONE EAST PERIMETER SPACE - STORY GROUND PSZ-AC OA SYS OUTDOOR AIR MIXER,NODE 75,NODE 80,Air Nodes
 Component Set,37,AIRLOOPHVAC:OUTDOORAIRSYSTEM,ZONE NORTH PERIMETER SPACE - STORY GROUND PSZ-AC OA SYS,OUTDOORAIR:MIXER,ZONE NORTH PERIMETER SPACE - STORY GROUND PSZ-AC OA SYS OUTDOOR AIR MIXER,NODE 27,NODE 32,Air Nodes
 Component Set,38,AIRLOOPHVAC:OUTDOORAIRSYSTEM,ZONE SOUTH PERIMETER SPACE - STORY GROUND PSZ-AC OA SYS,OUTDOORAIR:MIXER,ZONE SOUTH PERIMETER SPACE - STORY GROUND PSZ-AC OA SYS OUTDOOR AIR MIXER,NODE 51,NODE 56,Air Nodes
 Component Set,39,AIRLOOPHVAC:OUTDOORAIRSYSTEM,ZONE WEST PERIMETER SPACE - STORY GROUND PSZ-AC OA SYS,OUTDOORAIR:MIXER,ZONE WEST PERIMETER SPACE - STORY GROUND PSZ-AC OA SYS OUTDOOR AIR MIXER,NODE 63,NODE 68,Air Nodes
 Component Set,40,COILSYSTEM:COOLING:DX,ZONE CORE SPACE - STORY GROUND PSZ-AC 1SPD DX AC CLG COIL 36KBTU/HR 6.8EER COILSYSTEM,COIL:COOLING:DX:SINGLESPEED,ZONE CORE SPACE - STORY GROUND PSZ-AC 1SPD DX AC CLG COIL 36KBTU/HR 6.8EER,NODE 44,NODE 43,Air Nodes
 Component Set,41,COILSYSTEM:COOLING:DX,ZONE EAST PERIMETER SPACE - STORY GROUND PSZ-AC 1SPD DX AC CLG COIL 30KBTU/HR 6.8EER COILSYSTEM,COIL:COOLING:DX:SINGLESPEED,ZONE EAST PERIMETER SPACE - STORY GROUND PSZ-AC 1SPD DX AC CLG COIL 30KBTU/HR 6.8EER,NODE 80,NODE 79,Air Nodes
 Component Set,42,COILSYSTEM:COOLING:DX,ZONE NORTH PERIMETER SPACE - STORY GROUND PSZ-AC 1SPD DX AC CLG COIL 26KBTU/HR 6.8EER COILSYSTEM,COIL:COOLING:DX:SINGLESPEED,ZONE NORTH PERIMETER SPACE - STORY GROUND PSZ-AC 1SPD DX AC CLG COIL 26KBTU/HR 6.8EER,NODE 32,NODE 31,Air Nodes
 Component Set,43,COILSYSTEM:COOLING:DX,ZONE SOUTH PERIMETER SPACE - STORY GROUND PSZ-AC 1SPD DX AC CLG COIL 41KBTU/HR 6.8EER COILSYSTEM,COIL:COOLING:DX:SINGLESPEED,ZONE SOUTH PERIMETER SPACE - STORY GROUND PSZ-AC 1SPD DX AC CLG COIL 41KBTU/HR 6.8EER,NODE 56,NODE 55,Air Nodes
 Component Set,44,COILSYSTEM:COOLING:DX,ZONE WEST PERIMETER SPACE - STORY GROUND PSZ-AC 1SPD DX AC CLG COIL 33KBTU/HR 6.8EER COILSYSTEM,COIL:COOLING:DX:SINGLESPEED,ZONE WEST PERIMETER SPACE - STORY GROUND PSZ-AC 1SPD DX AC CLG COIL 33KBTU/HR 6.8EER,NODE 68,NODE 67,Air Nodes
! ===============================================================
! <# Plant Loops>,<Number of Plant Loops>
 #Plant Loops,1
! <Plant Loop>,<Plant Loop Name>,<Loop Type>,<Inlet Node Name>,<Outlet Node Name>,<Branch List>,<Connector List>
! <Plant Loop Connector>,<Connector Type>,<Connector Name>,<Loop Name>,<Loop Type>,<Number of Inlets/Outlets>
! <Plant Loop Connector Branches>,<Connector Node Count>,<Connector Type>,<Connector Name>,<Inlet Branch>,<Outlet Branch>,<Loop Name>,<Loop Type>
! <Plant Loop Connector Nodes>,<Connector Node Count>,<Connector Type>,<Connector Name>,<Inlet Node>,<Outlet Node>,<Loop Name>,<Loop Type>
! <Plant Loop Supply Connection>,<Plant Loop Name>,<Supply Side Outlet Node Name>,<Demand Side Inlet Node Name>
! <Plant Loop Return Connection>,<Plant Loop Name>,<Demand Side Outlet Node Name>,<Supply Side Inlet Node Name>
 Plant Loop,OFFICE SHARED SERVICE WATER LOOP,Demand,NODE 9,NODE 10,OFFICE SHARED SERVICE WATER LOOP DEMAND BRANCHES,OFFICE SHARED SERVICE WATER LOOP DEMAND CONNECTOR LIST
   Plant Loop Connector,Splitter,OFFICE SHARED SERVICE WATER LOOP DEMAND SPLITTER,OFFICE SHARED SERVICE WATER LOOP,Demand,3
     Plant Loop Connector Branches,1,Splitter,OFFICE SHARED SERVICE WATER LOOP DEMAND SPLITTER,OFFICE SHARED SERVICE WATER LOOP DEMAND INLET BRANCH,OFFICE SHARED SERVICE WATER LOOP DEMAND BRANCH 1,OFFICE SHARED SERVICE WATER LOOP,Demand
     Plant Loop Connector Nodes,   1,Splitter,OFFICE SHARED SERVICE WATER LOOP DEMAND SPLITTER,NODE 18,NODE 11,OFFICE SHARED SERVICE WATER LOOP,Demand
     Plant Loop Connector Branches,2,Splitter,OFFICE SHARED SERVICE WATER LOOP DEMAND SPLITTER,OFFICE SHARED SERVICE WATER LOOP DEMAND INLET BRANCH,OFFICE SHARED SERVICE WATER LOOP DEMAND BRANCH 2,OFFICE SHARED SERVICE WATER LOOP,Demand
     Plant Loop Connector Nodes,   2,Splitter,OFFICE SHARED SERVICE WATER LOOP DEMAND SPLITTER,NODE 18,NODE 20,OFFICE SHARED SERVICE WATER LOOP,Demand
     Plant Loop Connector Branches,3,Splitter,OFFICE SHARED SERVICE WATER LOOP DEMAND SPLITTER,OFFICE SHARED SERVICE WATER LOOP DEMAND INLET BRANCH,OFFICE SHARED SERVICE WATER LOOP DEMAND BYPASS BRANCH,OFFICE SHARED SERVICE WATER LOOP,Demand
     Plant Loop Connector Nodes,   3,Splitter,OFFICE SHARED SERVICE WATER LOOP DEMAND SPLITTER,NODE 18,OFFICE SHARED SERVICE WATER LOOP DEMAND BYPASS PIPE INLET NODE,OFFICE SHARED SERVICE WATER LOOP,Demand
   Plant Loop Connector,Mixer,OFFICE SHARED SERVICE WATER LOOP DEMAND MIXER,OFFICE SHARED SERVICE WATER LOOP,Demand,3
     Plant Loop Connector Branches,1,Mixer,OFFICE SHARED SERVICE WATER LOOP DEMAND MIXER,OFFICE SHARED SERVICE WATER LOOP DEMAND BRANCH 1,OFFICE SHARED SERVICE WATER LOOP DEMAND OUTLET BRANCH,OFFICE SHARED SERVICE WATER LOOP,Demand
     Plant Loop Connector Nodes,   1,Mixer,OFFICE SHARED SERVICE WATER LOOP DEMAND MIXER,NODE 16,NODE 19,OFFICE SHARED SERVICE WATER LOOP,Demand
     Plant Loop Connector Branches,2,Mixer,OFFICE SHARED SERVICE WATER LOOP DEMAND MIXER,OFFICE SHARED SERVICE WATER LOOP DEMAND BRANCH 2,OFFICE SHARED SERVICE WATER LOOP DEMAND OUTLET BRANCH,OFFICE SHARED SERVICE WATER LOOP,Demand
     Plant Loop Connector Nodes,   2,Mixer,OFFICE SHARED SERVICE WATER LOOP DEMAND MIXER,NODE 21,NODE 19,OFFICE SHARED SERVICE WATER LOOP,Demand
     Plant Loop Connector Branches,3,Mixer,OFFICE SHARED SERVICE WATER LOOP DEMAND MIXER,OFFICE SHARED SERVICE WATER LOOP DEMAND BYPASS BRANCH,OFFICE SHARED SERVICE WATER LOOP DEMAND OUTLET BRANCH,OFFICE SHARED SERVICE WATER LOOP,Demand
     Plant Loop Connector Nodes,   3,Mixer,OFFICE SHARED SERVICE WATER LOOP DEMAND MIXER,OFFICE SHARED SERVICE WATER LOOP DEMAND BYPASS PIPE OUTLET NODE,NODE 19,OFFICE SHARED SERVICE WATER LOOP,Demand
 Plant Loop,OFFICE SHARED SERVICE WATER LOOP,Supply,NODE 6,NODE 7,OFFICE SHARED SERVICE WATER LOOP SUPPLY BRANCHES,OFFICE SHARED SERVICE WATER LOOP SUPPLY CONNECTOR LIST
   Plant Loop Connector,Splitter,OFFICE SHARED SERVICE WATER LOOP SUPPLY SPLITTER,OFFICE SHARED SERVICE WATER LOOP,Supply,2
     Plant Loop Connector Branches,1,Splitter,OFFICE SHARED SERVICE WATER LOOP SUPPLY SPLITTER,OFFICE SHARED SERVICE WATER LOOP SUPPLY INLET BRANCH,OFFICE SHARED SERVICE WATER LOOP SUPPLY BRANCH 1,OFFICE SHARED SERVICE WATER LOOP,Supply
     Plant Loop Connector Nodes,   1,Splitter,OFFICE SHARED SERVICE WATER LOOP SUPPLY SPLITTER,NODE 12,NODE 8,OFFICE SHARED SERVICE WATER LOOP,Supply
     Plant Loop Connector Branches,2,Splitter,OFFICE SHARED SERVICE WATER LOOP SUPPLY SPLITTER,OFFICE SHARED SERVICE WATER LOOP SUPPLY INLET BRANCH,OFFICE SHARED SERVICE WATER LOOP SUPPLY BRANCH 2,OFFICE SHARED SERVICE WATER LOOP,Supply
     Plant Loop Connector Nodes,   2,Splitter,OFFICE SHARED SERVICE WATER LOOP SUPPLY SPLITTER,NODE 12,NODE 14,OFFICE SHARED SERVICE WATER LOOP,Supply
   Plant Loop Connector,Mixer,OFFICE SHARED SERVICE WATER LOOP SUPPLY MIXER,OFFICE SHARED SERVICE WATER LOOP,Supply,2
     Plant Loop Connector Branches,1,Mixer,OFFICE SHARED SERVICE WATER LOOP SUPPLY MIXER,OFFICE SHARED SERVICE WATER LOOP SUPPLY BRANCH 1,OFFICE SHARED SERVICE WATER LOOP SUPPLY OUTLET BRANCH,OFFICE SHARED SERVICE WATER LOOP,Supply
     Plant Loop Connector Nodes,   1,Mixer,OFFICE SHARED SERVICE WATER LOOP SUPPLY MIXER,NODE 13,NODE 17,OFFICE SHARED SERVICE WATER LOOP,Supply
     Plant Loop Connector Branches,2,Mixer,OFFICE SHARED SERVICE WATER LOOP SUPPLY MIXER,OFFICE SHARED SERVICE WATER LOOP SUPPLY BRANCH 2,OFFICE SHARED SERVICE WATER LOOP SUPPLY OUTLET BRANCH,OFFICE SHARED SERVICE WATER LOOP,Supply
     Plant Loop Connector Nodes,   2,Mixer,OFFICE SHARED SERVICE WATER LOOP SUPPLY MIXER,NODE 15,NODE 17,OFFICE SHARED SERVICE WATER LOOP,Supply
 Plant Loop Supply Connection,OFFICE SHARED SERVICE WATER LOOP,NODE 7,NODE 9
 Plant Loop Return Connection,OFFICE SHARED SERVICE WATER LOOP,NODE 10,NODE 6
! ===============================================================
! <# Condenser Loops>,<Number of Condenser Loops>
 #Condenser Loops,0
! <Condenser Loop>,<Condenser Loop Name>,<Loop Type>,<Inlet Node Name>,<Outlet Node Name>,<Branch List>,<Connector List>
! <Condenser Loop Connector>,<Connector Type>,<Connector Name>,<Loop Name>,<Loop Type>,<Number of Inlets/Outlets>
! <Condenser Loop Connector Branches>,<Connector Node Count>,<Connector Type>,<Connector Name>,<Inlet Branch>,<Outlet Branch>,<Loop Name>,<Loop Type>
! <Condenser Loop Connector Nodes>,<Connector Node Count>,<Connector Type>,<Connector Name>,<Inlet Node>,<Outlet Node>,<Loop Name>,<Loop Type>
! <Condenser Loop Supply Connection>,<Condenser Loop Name>,<Supply Side Outlet Node Name>,<Demand Side Inlet Node Name>
! <Condenser Loop Return Connection>,<Condenser Loop Name>,<Demand Side Outlet Node Name>,<Supply Side Inlet Node Name>
! ===============================================================
! <# Controlled Zones>,<Number of Controlled Zones>
 #Controlled Zones,5
! <Controlled Zone>,<Controlled Zone Name>,<Equip List Name>,<Control List Name>,<Zone Node Name>,<Return Air Node Name>,<# Inlet Nodes>,<# Exhaust Nodes>
! <Controlled Zone Inlet>,<Inlet Node Count>,<Controlled Zone Name>,<Supply Air Inlet Node Name>,<SD Sys:Cooling/Heating [DD:Cooling] Inlet Node Name>,<DD Sys:Heating Inlet Node Name>
! <Controlled Zone Exhaust>,<Exhaust Node Count>,<Controlled Zone Name>,<Exhaust Air Node Name>
 Controlled Zone,ZONE CORE SPACE - STORY GROUND,ZONE CORE SPACE - STORY GROUND EQUIPMENT LIST,,NODE 5,NODE 45,1,0
   Controlled Zone Inlet,1,ZONE CORE SPACE - STORY GROUND,NODE 38,NODE 38,N/A
 Controlled Zone,ZONE EAST PERIMETER SPACE - STORY GROUND,ZONE EAST PERIMETER SPACE - STORY GROUND EQUIPMENT LIST,,NODE 3,NODE 81,1,0
   Controlled Zone Inlet,1,ZONE EAST PERIMETER SPACE - STORY GROUND,NODE 74,NODE 74,N/A
 Controlled Zone,ZONE NORTH PERIMETER SPACE - STORY GROUND,ZONE NORTH PERIMETER SPACE - STORY GROUND EQUIPMENT LIST,,NODE 2,NODE 33,1,0
   Controlled Zone Inlet,1,ZONE NORTH PERIMETER SPACE - STORY GROUND,NODE 26,NODE 26,N/A
 Controlled Zone,ZONE SOUTH PERIMETER SPACE - STORY GROUND,ZONE SOUTH PERIMETER SPACE - STORY GROUND EQUIPMENT LIST,,NODE 4,NODE 57,1,0
   Controlled Zone Inlet,1,ZONE SOUTH PERIMETER SPACE - STORY GROUND,NODE 50,NODE 50,N/A
 Controlled Zone,ZONE WEST PERIMETER SPACE - STORY GROUND,ZONE WEST PERIMETER SPACE - STORY GROUND EQUIPMENT LIST,,NODE 1,NODE 69,1,0
   Controlled Zone Inlet,1,ZONE WEST PERIMETER SPACE - STORY GROUND,NODE 62,NODE 62,N/A
! ===============================================================
! <#Zone Equipment Lists>,<Number of Zone Equipment Lists>
 #Zone Equipment Lists,5
! <Zone Equipment List>,<Zone Equipment List Count>,<Zone Equipment List Name>,<Zone Name>,<Number of Components>
! <Zone Equipment Component>,<Component Count>,<Component Type>,<Component Name>,<Zone Name>,<Heating Priority>,<Cooling Priority>
 Zone Equipment List,1,ZONE CORE SPACE - STORY GROUND EQUIPMENT LIST,ZONE CORE SPACE - STORY GROUND,1
   Zone Equipment Component,1,AIRTERMINAL:SINGLEDUCT:UNCONTROLLED,ZONE CORE SPACE - STORY GROUND PSZ-AC DIFFUSER,ZONE CORE SPACE - STORY GROUND,1,1
 Zone Equipment List,2,ZONE EAST PERIMETER SPACE - STORY GROUND EQUIPMENT LIST,ZONE EAST PERIMETER SPACE - STORY GROUND,1
   Zone Equipment Component,1,AIRTERMINAL:SINGLEDUCT:UNCONTROLLED,ZONE EAST PERIMETER SPACE - STORY GROUND PSZ-AC DIFFUSER,ZONE EAST PERIMETER SPACE - STORY GROUND,1,1
 Zone Equipment List,3,ZONE NORTH PERIMETER SPACE - STORY GROUND EQUIPMENT LIST,ZONE NORTH PERIMETER SPACE - STORY GROUND,1
   Zone Equipment Component,1,AIRTERMINAL:SINGLEDUCT:UNCONTROLLED,ZONE NORTH PERIMETER SPACE - STORY GROUND PSZ-AC DIFFUSER,ZONE NORTH PERIMETER SPACE - STORY GROUND,1,1
 Zone Equipment List,4,ZONE SOUTH PERIMETER SPACE - STORY GROUND EQUIPMENT LIST,ZONE SOUTH PERIMETER SPACE - STORY GROUND,1
   Zone Equipment Component,1,AIRTERMINAL:SINGLEDUCT:UNCONTROLLED,ZONE SOUTH PERIMETER SPACE - STORY GROUND PSZ-AC DIFFUSER,ZONE SOUTH PERIMETER SPACE - STORY GROUND,1,1
 Zone Equipment List,5,ZONE WEST PERIMETER SPACE - STORY GROUND EQUIPMENT LIST,ZONE WEST PERIMETER SPACE - STORY GROUND,1
   Zone Equipment Component,1,AIRTERMINAL:SINGLEDUCT:UNCONTROLLED,ZONE WEST PERIMETER SPACE - STORY GROUND PSZ-AC DIFFUSER,ZONE WEST PERIMETER SPACE - STORY GROUND,1,1
! ===============================================================
! <#AirLoopHVACs>,<Number of AirLoopHVACs>
 #AirLoopHVACs,5
! <AirLoopHVAC>,<Air Loop Name>,<# Return Nodes>,<# Supply Nodes>,<# Zones Cooled>,<# Zones Heated>,<Outdoor Air Used>
! <AirLoop Return Connections>,<Connection Count>,<AirLoopHVAC Name>,<Zn Eqp Return Node #>,<Zn Eqp Return Node Name>,<AirLoop Return Node #>,<Air Loop Return Node Name>
! <AirLoop Supply Connections>,<Connection Count>,<AirLoopHVAC Name>,<Zn Eqp Supply Node #>,<Zn Eqp Supply Node Name>,<AirLoop Supply Node #>,<Air Loop Supply Node Name>
! <Cooled Zone Info>,<Cooled Zone Count>,<Cooled Zone Name>,<Cooled Zone Inlet Node #>,<Cooled Zone Inlet Node Name>,<AirLoopHVAC Name>
! <Heated Zone Info>,<Heated Zone Count>,<Heated Zone Name>,<Heated Zone Inlet Node #>,<Heated Zone Inlet Node Name>,<AirLoopHVAC Name>
! <Outdoor Air Connections>,<OA Inlet Node #>,<OA Return Air Inlet Node Name>,<OA Outlet Node #>,<OA Mixed Air Outlet Node Name>,<AirLoopHVAC Name>
! <AirLoopHVAC Connector>,<Connector Type>,<Connector Name>,<Loop Name>,<Loop Type>,<Number of Inlets/Outlets>
! <AirLoopHVAC Connector Branches>,<Connector Node Count>,<Connector Type>,<Connector Name>,<Inlet Branch>,<Outlet Branch>,<Loop Name>,<Loop Type>
! <AirLoopHVAC Connector Nodes>,<Connector Node Count>,<Connector Type>,<Connector Name>,<Inlet Node>,<Outlet Node>,<Loop Name>,<Loop Type>
 AirLoopHVAC,ZONE CORE SPACE - STORY GROUND PSZ-AC,1,1,1,0,Yes
   AirLoop Return Connections,1,ZONE CORE SPACE - STORY GROUND PSZ-AC,74,NODE 37,16,NODE 34
   AirLoop Supply Connections,1,ZONE CORE SPACE - STORY GROUND PSZ-AC,7,NODE 36,6,NODE 35
   Cooled Zone Info,1,ZONE CORE SPACE - STORY GROUND,1,NODE 38,ZONE CORE SPACE - STORY GROUND PSZ-AC
   Outdoor Air Connections,16,NODE 34,17,NODE 44,ZONE CORE SPACE - STORY GROUND PSZ-AC
 AirLoopHVAC,ZONE EAST PERIMETER SPACE - STORY GROUND PSZ-AC,1,1,1,0,Yes
   AirLoop Return Connections,1,ZONE EAST PERIMETER SPACE - STORY GROUND PSZ-AC,75,NODE 73,21,NODE 70
   AirLoop Supply Connections,1,ZONE EAST PERIMETER SPACE - STORY GROUND PSZ-AC,9,NODE 72,8,NODE 71
   Cooled Zone Info,1,ZONE EAST PERIMETER SPACE - STORY GROUND,2,NODE 74,ZONE EAST PERIMETER SPACE - STORY GROUND PSZ-AC
   Outdoor Air Connections,21,NODE 70,22,NODE 80,ZONE EAST PERIMETER SPACE - STORY GROUND PSZ-AC
 AirLoopHVAC,ZONE NORTH PERIMETER SPACE - STORY GROUND PSZ-AC,1,1,1,0,Yes
   AirLoop Return Connections,1,ZONE NORTH PERIMETER SPACE - STORY GROUND PSZ-AC,76,NODE 25,26,NODE 22
   AirLoop Supply Connections,1,ZONE NORTH PERIMETER SPACE - STORY GROUND PSZ-AC,11,NODE 24,10,NODE 23
   Cooled Zone Info,1,ZONE NORTH PERIMETER SPACE - STORY GROUND,3,NODE 26,ZONE NORTH PERIMETER SPACE - STORY GROUND PSZ-AC
   Outdoor Air Connections,26,NODE 22,27,NODE 32,ZONE NORTH PERIMETER SPACE - STORY GROUND PSZ-AC
 AirLoopHVAC,ZONE SOUTH PERIMETER SPACE - STORY GROUND PSZ-AC,1,1,1,0,Yes
   AirLoop Return Connections,1,ZONE SOUTH PERIMETER SPACE - STORY GROUND PSZ-AC,77,NODE 49,31,NODE 46
   AirLoop Supply Connections,1,ZONE SOUTH PERIMETER SPACE - STORY GROUND PSZ-AC,13,NODE 48,12,NODE 47
   Cooled Zone Info,1,ZONE SOUTH PERIMETER SPACE - STORY GROUND,4,NODE 50,ZONE SOUTH PERIMETER SPACE - STORY GROUND PSZ-AC
   Outdoor Air Connections,31,NODE 46,32,NODE 56,ZONE SOUTH PERIMETER SPACE - STORY GROUND PSZ-AC
 AirLoopHVAC,ZONE WEST PERIMETER SPACE - STORY GROUND PSZ-AC,1,1,1,0,Yes
   AirLoop Return Connections,1,ZONE WEST PERIMETER SPACE - STORY GROUND PSZ-AC,78,NODE 61,36,NODE 58
   AirLoop Supply Connections,1,ZONE WEST PERIMETER SPACE - STORY GROUND PSZ-AC,15,NODE 60,14,NODE 59
   Cooled Zone Info,1,ZONE WEST PERIMETER SPACE - STORY GROUND,5,NODE 62,ZONE WEST PERIMETER SPACE - STORY GROUND PSZ-AC
   Outdoor Air Connections,36,NODE 58,37,NODE 68,ZONE WEST PERIMETER SPACE - STORY GROUND PSZ-AC
! ===============================================================
! <#Parent Node Connections>,<Number of Parent Node Connections>
 #Parent Node Connections,98
! <Parent Node Connection>,<Node Name>,<Node ObjectType>,<Node ObjectName>,<Node ConnectionType>,<Node FluidStream>
 Parent Node Connection,NODE 34,BRANCH,ZONE CORE SPACE - STORY GROUND PSZ-AC MAIN BRANCH,Inlet,1
 Parent Node Connection,NODE 44,BRANCH,ZONE CORE SPACE - STORY GROUND PSZ-AC MAIN BRANCH,Internal,1
 Parent Node Connection,NODE 43,BRANCH,ZONE CORE SPACE - STORY GROUND PSZ-AC MAIN BRANCH,Internal,1
 Parent Node Connection,NODE 42,BRANCH,ZONE CORE SPACE - STORY GROUND PSZ-AC MAIN BRANCH,Internal,1
 Parent Node Connection,NODE 41,BRANCH,ZONE CORE SPACE - STORY GROUND PSZ-AC MAIN BRANCH,Internal,1
 Parent Node Connection,NODE 35,BRANCH,ZONE CORE SPACE - STORY GROUND PSZ-AC MAIN BRANCH,Outlet,1
 Parent Node Connection,NODE 70,BRANCH,ZONE EAST PERIMETER SPACE - STORY GROUND PSZ-AC MAIN BRANCH,Inlet,1
 Parent Node Connection,NODE 80,BRANCH,ZONE EAST PERIMETER SPACE - STORY GROUND PSZ-AC MAIN BRANCH,Internal,1
 Parent Node Connection,NODE 79,BRANCH,ZONE EAST PERIMETER SPACE - STORY GROUND PSZ-AC MAIN BRANCH,Internal,1
 Parent Node Connection,NODE 78,BRANCH,ZONE EAST PERIMETER SPACE - STORY GROUND PSZ-AC MAIN BRANCH,Internal,1
 Parent Node Connection,NODE 77,BRANCH,ZONE EAST PERIMETER SPACE - STORY GROUND PSZ-AC MAIN BRANCH,Internal,1
 Parent Node Connection,NODE 71,BRANCH,ZONE EAST PERIMETER SPACE - STORY GROUND PSZ-AC MAIN BRANCH,Outlet,1
 Parent Node Connection,NODE 22,BRANCH,ZONE NORTH PERIMETER SPACE - STORY GROUND PSZ-AC MAIN BRANCH,Inlet,1
 Parent Node Connection,NODE 32,BRANCH,ZONE NORTH PERIMETER SPACE - STORY GROUND PSZ-AC MAIN BRANCH,Internal,1
 Parent Node Connection,NODE 31,BRANCH,ZONE NORTH PERIMETER SPACE - STORY GROUND PSZ-AC MAIN BRANCH,Internal,1
 Parent Node Connection,NODE 30,BRANCH,ZONE NORTH PERIMETER SPACE - STORY GROUND PSZ-AC MAIN BRANCH,Internal,1
 Parent Node Connection,NODE 29,BRANCH,ZONE NORTH PERIMETER SPACE - STORY GROUND PSZ-AC MAIN BRANCH,Internal,1
 Parent Node Connection,NODE 23,BRANCH,ZONE NORTH PERIMETER SPACE - STORY GROUND PSZ-AC MAIN BRANCH,Outlet,1
 Parent Node Connection,NODE 46,BRANCH,ZONE SOUTH PERIMETER SPACE - STORY GROUND PSZ-AC MAIN BRANCH,Inlet,1
 Parent Node Connection,NODE 56,BRANCH,ZONE SOUTH PERIMETER SPACE - STORY GROUND PSZ-AC MAIN BRANCH,Internal,1
 Parent Node Connection,NODE 55,BRANCH,ZONE SOUTH PERIMETER SPACE - STORY GROUND PSZ-AC MAIN BRANCH,Internal,1
 Parent Node Connection,NODE 54,BRANCH,ZONE SOUTH PERIMETER SPACE - STORY GROUND PSZ-AC MAIN BRANCH,Internal,1
 Parent Node Connection,NODE 53,BRANCH,ZONE SOUTH PERIMETER SPACE - STORY GROUND PSZ-AC MAIN BRANCH,Internal,1
 Parent Node Connection,NODE 47,BRANCH,ZONE SOUTH PERIMETER SPACE - STORY GROUND PSZ-AC MAIN BRANCH,Outlet,1
 Parent Node Connection,NODE 58,BRANCH,ZONE WEST PERIMETER SPACE - STORY GROUND PSZ-AC MAIN BRANCH,Inlet,1
 Parent Node Connection,NODE 68,BRANCH,ZONE WEST PERIMETER SPACE - STORY GROUND PSZ-AC MAIN BRANCH,Internal,1
 Parent Node Connection,NODE 67,BRANCH,ZONE WEST PERIMETER SPACE - STORY GROUND PSZ-AC MAIN BRANCH,Internal,1
 Parent Node Connection,NODE 66,BRANCH,ZONE WEST PERIMETER SPACE - STORY GROUND PSZ-AC MAIN BRANCH,Internal,1
 Parent Node Connection,NODE 65,BRANCH,ZONE WEST PERIMETER SPACE - STORY GROUND PSZ-AC MAIN BRANCH,Internal,1
 Parent Node Connection,NODE 59,BRANCH,ZONE WEST PERIMETER SPACE - STORY GROUND PSZ-AC MAIN BRANCH,Outlet,1
 Parent Node Connection,NODE 6,BRANCH,OFFICE SHARED SERVICE WATER LOOP SUPPLY INLET BRANCH,Inlet,1
 Parent Node Connection,NODE 12,BRANCH,OFFICE SHARED SERVICE WATER LOOP SUPPLY INLET BRANCH,Outlet,1
 Parent Node Connection,NODE 8,BRANCH,OFFICE SHARED SERVICE WATER LOOP SUPPLY BRANCH 1,Inlet,1
 Parent Node Connection,NODE 13,BRANCH,OFFICE SHARED SERVICE WATER LOOP SUPPLY BRANCH 1,Outlet,1
 Parent Node Connection,NODE 14,BRANCH,OFFICE SHARED SERVICE WATER LOOP SUPPLY BRANCH 2,Inlet,1
 Parent Node Connection,NODE 15,BRANCH,OFFICE SHARED SERVICE WATER LOOP SUPPLY BRANCH 2,Outlet,1
 Parent Node Connection,NODE 17,BRANCH,OFFICE SHARED SERVICE WATER LOOP SUPPLY OUTLET BRANCH,Inlet,1
 Parent Node Connection,NODE 7,BRANCH,OFFICE SHARED SERVICE WATER LOOP SUPPLY OUTLET BRANCH,Outlet,1
 Parent Node Connection,NODE 9,BRANCH,OFFICE SHARED SERVICE WATER LOOP DEMAND INLET BRANCH,Inlet,1
 Parent Node Connection,NODE 18,BRANCH,OFFICE SHARED SERVICE WATER LOOP DEMAND INLET BRANCH,Outlet,1
 Parent Node Connection,NODE 11,BRANCH,OFFICE SHARED SERVICE WATER LOOP DEMAND BRANCH 1,Inlet,1
 Parent Node Connection,NODE 16,BRANCH,OFFICE SHARED SERVICE WATER LOOP DEMAND BRANCH 1,Outlet,1
 Parent Node Connection,NODE 20,BRANCH,OFFICE SHARED SERVICE WATER LOOP DEMAND BRANCH 2,Inlet,1
 Parent Node Connection,NODE 21,BRANCH,OFFICE SHARED SERVICE WATER LOOP DEMAND BRANCH 2,Outlet,1
 Parent Node Connection,OFFICE SHARED SERVICE WATER LOOP DEMAND BYPASS PIPE INLET NODE,BRANCH,OFFICE SHARED SERVICE WATER LOOP DEMAND BYPASS BRANCH,Inlet,1
 Parent Node Connection,OFFICE SHARED SERVICE WATER LOOP DEMAND BYPASS PIPE OUTLET NODE,BRANCH,OFFICE SHARED SERVICE WATER LOOP DEMAND BYPASS BRANCH,Outlet,1
 Parent Node Connection,NODE 19,BRANCH,OFFICE SHARED SERVICE WATER LOOP DEMAND OUTLET BRANCH,Inlet,1
 Parent Node Connection,NODE 10,BRANCH,OFFICE SHARED SERVICE WATER LOOP DEMAND OUTLET BRANCH,Outlet,1
 Parent Node Connection,NODE 6,PLANTLOOP,OFFICE SHARED SERVICE WATER LOOP,Inlet,1
 Parent Node Connection,NODE 7,PLANTLOOP,OFFICE SHARED SERVICE WATER LOOP,Outlet,1
 Parent Node Connection,NODE 9,PLANTLOOP,OFFICE SHARED SERVICE WATER LOOP,Inlet,1
 Parent Node Connection,NODE 10,PLANTLOOP,OFFICE SHARED SERVICE WATER LOOP,Outlet,1
 Parent Node Connection,NODE 7,PLANTLOOP,OFFICE SHARED SERVICE WATER LOOP,Sensor,1
 Parent Node Connection,NODE 36,AIRLOOPHVAC:SUPPLYPATH,ZONE CORE SPACE - STORY GROUND PSZ-AC NODE 36 SUPPLY PATH,Inlet,1
 Parent Node Connection,NODE 72,AIRLOOPHVAC:SUPPLYPATH,ZONE EAST PERIMETER SPACE - STORY GROUND PSZ-AC NODE 72 SUPPLY PATH,Inlet,1
 Parent Node Connection,NODE 24,AIRLOOPHVAC:SUPPLYPATH,ZONE NORTH PERIMETER SPACE - STORY GROUND PSZ-AC NODE 24 SUPPLY PATH,Inlet,1
 Parent Node Connection,NODE 48,AIRLOOPHVAC:SUPPLYPATH,ZONE SOUTH PERIMETER SPACE - STORY GROUND PSZ-AC NODE 48 SUPPLY PATH,Inlet,1
 Parent Node Connection,NODE 60,AIRLOOPHVAC:SUPPLYPATH,ZONE WEST PERIMETER SPACE - STORY GROUND PSZ-AC NODE 60 SUPPLY PATH,Inlet,1
 Parent Node Connection,NODE 37,AIRLOOPHVAC:RETURNPATH,ZONE CORE SPACE - STORY GROUND PSZ-AC RETURN PATH,Outlet,1
 Parent Node Connection,NODE 73,AIRLOOPHVAC:RETURNPATH,ZONE EAST PERIMETER SPACE - STORY GROUND PSZ-AC RETURN PATH,Outlet,1
 Parent Node Connection,NODE 25,AIRLOOPHVAC:RETURNPATH,ZONE NORTH PERIMETER SPACE - STORY GROUND PSZ-AC RETURN PATH,Outlet,1
 Parent Node Connection,NODE 49,AIRLOOPHVAC:RETURNPATH,ZONE SOUTH PERIMETER SPACE - STORY GROUND PSZ-AC RETURN PATH,Outlet,1
 Parent Node Connection,NODE 61,AIRLOOPHVAC:RETURNPATH,ZONE WEST PERIMETER SPACE - STORY GROUND PSZ-AC RETURN PATH,Outlet,1
 Parent Node Connection,NODE 34,AIRLOOPHVAC,ZONE CORE SPACE - STORY GROUND PSZ-AC,Inlet,1
 Parent Node Connection,NODE 37,AIRLOOPHVAC,ZONE CORE SPACE - STORY GROUND PSZ-AC,Outlet,1
 Parent Node Connection,NODE 36,AIRLOOPHVAC,ZONE CORE SPACE - STORY GROUND PSZ-AC,Inlet,1
 Parent Node Connection,NODE 35,AIRLOOPHVAC,ZONE CORE SPACE - STORY GROUND PSZ-AC,Outlet,1
 Parent Node Connection,NODE 70,AIRLOOPHVAC,ZONE EAST PERIMETER SPACE - STORY GROUND PSZ-AC,Inlet,1
 Parent Node Connection,NODE 73,AIRLOOPHVAC,ZONE EAST PERIMETER SPACE - STORY GROUND PSZ-AC,Outlet,1
 Parent Node Connection,NODE 72,AIRLOOPHVAC,ZONE EAST PERIMETER SPACE - STORY GROUND PSZ-AC,Inlet,1
 Parent Node Connection,NODE 71,AIRLOOPHVAC,ZONE EAST PERIMETER SPACE - STORY GROUND PSZ-AC,Outlet,1
 Parent Node Connection,NODE 22,AIRLOOPHVAC,ZONE NORTH PERIMETER SPACE - STORY GROUND PSZ-AC,Inlet,1
 Parent Node Connection,NODE 25,AIRLOOPHVAC,ZONE NORTH PERIMETER SPACE - STORY GROUND PSZ-AC,Outlet,1
 Parent Node Connection,NODE 24,AIRLOOPHVAC,ZONE NORTH PERIMETER SPACE - STORY GROUND PSZ-AC,Inlet,1
 Parent Node Connection,NODE 23,AIRLOOPHVAC,ZONE NORTH PERIMETER SPACE - STORY GROUND PSZ-AC,Outlet,1
 Parent Node Connection,NODE 46,AIRLOOPHVAC,ZONE SOUTH PERIMETER SPACE - STORY GROUND PSZ-AC,Inlet,1
 Parent Node Connection,NODE 49,AIRLOOPHVAC,ZONE SOUTH PERIMETER SPACE - STORY GROUND PSZ-AC,Outlet,1
 Parent Node Connection,NODE 48,AIRLOOPHVAC,ZONE SOUTH PERIMETER SPACE - STORY GROUND PSZ-AC,Inlet,1
 Parent Node Connection,NODE 47,AIRLOOPHVAC,ZONE SOUTH PERIMETER SPACE - STORY GROUND PSZ-AC,Outlet,1
 Parent Node Connection,NODE 58,AIRLOOPHVAC,ZONE WEST PERIMETER SPACE - STORY GROUND PSZ-AC,Inlet,1
 Parent Node Connection,NODE 61,AIRLOOPHVAC,ZONE WEST PERIMETER SPACE - STORY GROUND PSZ-AC,Outlet,1
 Parent Node Connection,NODE 60,AIRLOOPHVAC,ZONE WEST PERIMETER SPACE - STORY GROUND PSZ-AC,Inlet,1
 Parent Node Connection,NODE 59,AIRLOOPHVAC,ZONE WEST PERIMETER SPACE - STORY GROUND PSZ-AC,Outlet,1
 Parent Node Connection,NODE 44,COILSYSTEM:COOLING:DX,ZONE CORE SPACE - STORY GROUND PSZ-AC 1SPD DX AC CLG COIL 36KBTU/HR 6.8EER COILSYSTEM,Inlet,1
 Parent Node Connection,NODE 43,COILSYSTEM:COOLING:DX,ZONE CORE SPACE - STORY GROUND PSZ-AC 1SPD DX AC CLG COIL 36KBTU/HR 6.8EER COILSYSTEM,Outlet,1
 Parent Node Connection,NODE 43,COILSYSTEM:COOLING:DX,ZONE CORE SPACE - STORY GROUND PSZ-AC 1SPD DX AC CLG COIL 36KBTU/HR 6.8EER COILSYSTEM,Sensor,1
 Parent Node Connection,NODE 80,COILSYSTEM:COOLING:DX,ZONE EAST PERIMETER SPACE - STORY GROUND PSZ-AC 1SPD DX AC CLG COIL 30KBTU/HR 6.8EER COILSYSTEM,Inlet,1
 Parent Node Connection,NODE 79,COILSYSTEM:COOLING:DX,ZONE EAST PERIMETER SPACE - STORY GROUND PSZ-AC 1SPD DX AC CLG COIL 30KBTU/HR 6.8EER COILSYSTEM,Outlet,1
 Parent Node Connection,NODE 79,COILSYSTEM:COOLING:DX,ZONE EAST PERIMETER SPACE - STORY GROUND PSZ-AC 1SPD DX AC CLG COIL 30KBTU/HR 6.8EER COILSYSTEM,Sensor,1
 Parent Node Connection,NODE 32,COILSYSTEM:COOLING:DX,ZONE NORTH PERIMETER SPACE - STORY GROUND PSZ-AC 1SPD DX AC CLG COIL 26KBTU/HR 6.8EER COILSYSTEM,Inlet,1
 Parent Node Connection,NODE 31,COILSYSTEM:COOLING:DX,ZONE NORTH PERIMETER SPACE - STORY GROUND PSZ-AC 1SPD DX AC CLG COIL 26KBTU/HR 6.8EER COILSYSTEM,Outlet,1
 Parent Node Connection,NODE 31,COILSYSTEM:COOLING:DX,ZONE NORTH PERIMETER SPACE - STORY GROUND PSZ-AC 1SPD DX AC CLG COIL 26KBTU/HR 6.8EER COILSYSTEM,Sensor,1
 Parent Node Connection,NODE 56,COILSYSTEM:COOLING:DX,ZONE SOUTH PERIMETER SPACE - STORY GROUND PSZ-AC 1SPD DX AC CLG COIL 41KBTU/HR 6.8EER COILSYSTEM,Inlet,1
 Parent Node Connection,NODE 55,COILSYSTEM:COOLING:DX,ZONE SOUTH PERIMETER SPACE - STORY GROUND PSZ-AC 1SPD DX AC CLG COIL 41KBTU/HR 6.8EER COILSYSTEM,Outlet,1
 Parent Node Connection,NODE 55,COILSYSTEM:COOLING:DX,ZONE SOUTH PERIMETER SPACE - STORY GROUND PSZ-AC 1SPD DX AC CLG COIL 41KBTU/HR 6.8EER COILSYSTEM,Sensor,1
 Parent Node Connection,NODE 68,COILSYSTEM:COOLING:DX,ZONE WEST PERIMETER SPACE - STORY GROUND PSZ-AC 1SPD DX AC CLG COIL 33KBTU/HR 6.8EER COILSYSTEM,Inlet,1
 Parent Node Connection,NODE 67,COILSYSTEM:COOLING:DX,ZONE WEST PERIMETER SPACE - STORY GROUND PSZ-AC 1SPD DX AC CLG COIL 33KBTU/HR 6.8EER COILSYSTEM,Outlet,1
 Parent Node Connection,NODE 67,COILSYSTEM:COOLING:DX,ZONE WEST PERIMETER SPACE - STORY GROUND PSZ-AC 1SPD DX AC CLG COIL 33KBTU/HR 6.8EER COILSYSTEM,Sensor,1
! ===============================================================
! <#Non-Parent Node Connections>,<Number of Non-Parent Node Connections>
 #Non-Parent Node Connections,243
! <Non-Parent Node Connection>,<Node Name>,<Node ObjectType>,<Node ObjectName>,<Node ConnectionType>,<Node FluidStream>
 Non-Parent Node Connection,NODE 8,WATERHEATER:MIXED,40.0GAL GAS WATER HEATER - 2KBTU/HR 0.78 THERM EFF 0.78 THERM EFF,Inlet,1
 Non-Parent Node Connection,NODE 13,WATERHEATER:MIXED,40.0GAL GAS WATER HEATER - 2KBTU/HR 0.78 THERM EFF 0.78 THERM EFF,Outlet,1
 Non-Parent Node Connection,NODE 39,OUTDOORAIR:NODELIST,OutdoorAir:NodeList,OutdoorAir,1
 Non-Parent Node Connection,NODE 75,OUTDOORAIR:NODELIST,OutdoorAir:NodeList,OutdoorAir,2
 Non-Parent Node Connection,NODE 27,OUTDOORAIR:NODELIST,OutdoorAir:NodeList,OutdoorAir,3
 Non-Parent Node Connection,NODE 51,OUTDOORAIR:NODELIST,OutdoorAir:NodeList,OutdoorAir,4
 Non-Parent Node Connection,NODE 63,OUTDOORAIR:NODELIST,OutdoorAir:NodeList,OutdoorAir,5
 Non-Parent Node Connection,NODE 7,SETPOINTMANAGER:SCHEDULED,SERVICE HOT WATER SETPOINT MANAGER,Setpoint,1
 Non-Parent Node Connection,NODE 5,SETPOINTMANAGER:SINGLEZONE:REHEAT,SETPOINT MANAGER SINGLE ZONE REHEAT 2,Sensor,1
 Non-Parent Node Connection,NODE 38,SETPOINTMANAGER:SINGLEZONE:REHEAT,SETPOINT MANAGER SINGLE ZONE REHEAT 2,Sensor,1
 Non-Parent Node Connection,NODE 35,SETPOINTMANAGER:SINGLEZONE:REHEAT,SETPOINT MANAGER SINGLE ZONE REHEAT 2,Setpoint,1
 Non-Parent Node Connection,NODE 3,SETPOINTMANAGER:SINGLEZONE:REHEAT,SETPOINT MANAGER SINGLE ZONE REHEAT 5,Sensor,1
 Non-Parent Node Connection,NODE 74,SETPOINTMANAGER:SINGLEZONE:REHEAT,SETPOINT MANAGER SINGLE ZONE REHEAT 5,Sensor,1
 Non-Parent Node Connection,NODE 71,SETPOINTMANAGER:SINGLEZONE:REHEAT,SETPOINT MANAGER SINGLE ZONE REHEAT 5,Setpoint,1
 Non-Parent Node Connection,NODE 2,SETPOINTMANAGER:SINGLEZONE:REHEAT,SETPOINT MANAGER SINGLE ZONE REHEAT 1,Sensor,1
 Non-Parent Node Connection,NODE 26,SETPOINTMANAGER:SINGLEZONE:REHEAT,SETPOINT MANAGER SINGLE ZONE REHEAT 1,Sensor,1
 Non-Parent Node Connection,NODE 23,SETPOINTMANAGER:SINGLEZONE:REHEAT,SETPOINT MANAGER SINGLE ZONE REHEAT 1,Setpoint,1
 Non-Parent Node Connection,NODE 4,SETPOINTMANAGER:SINGLEZONE:REHEAT,SETPOINT MANAGER SINGLE ZONE REHEAT 3,Sensor,1
 Non-Parent Node Connection,NODE 50,SETPOINTMANAGER:SINGLEZONE:REHEAT,SETPOINT MANAGER SINGLE ZONE REHEAT 3,Sensor,1
 Non-Parent Node Connection,NODE 47,SETPOINTMANAGER:SINGLEZONE:REHEAT,SETPOINT MANAGER SINGLE ZONE REHEAT 3,Setpoint,1
 Non-Parent Node Connection,NODE 1,SETPOINTMANAGER:SINGLEZONE:REHEAT,SETPOINT MANAGER SINGLE ZONE REHEAT 4,Sensor,1
 Non-Parent Node Connection,NODE 62,SETPOINTMANAGER:SINGLEZONE:REHEAT,SETPOINT MANAGER SINGLE ZONE REHEAT 4,Sensor,1
 Non-Parent Node Connection,NODE 59,SETPOINTMANAGER:SINGLEZONE:REHEAT,SETPOINT MANAGER SINGLE ZONE REHEAT 4,Setpoint,1
 Non-Parent Node Connection,NODE 35,SETPOINTMANAGER:MIXEDAIR,NODE 44 OS DEFAULT SPM,Sensor,1
 Non-Parent Node Connection,NODE 41,SETPOINTMANAGER:MIXEDAIR,NODE 44 OS DEFAULT SPM,Sensor,1
 Non-Parent Node Connection,NODE 44,SETPOINTMANAGER:MIXEDAIR,NODE 44 OS DEFAULT SPM,Setpoint,1
 Non-Parent Node Connection,NODE 35,SETPOINTMANAGER:MIXEDAIR,NODE 43 OS DEFAULT SPM,Sensor,1
 Non-Parent Node Connection,NODE 41,SETPOINTMANAGER:MIXEDAIR,NODE 43 OS DEFAULT SPM,Sensor,1
 Non-Parent Node Connection,NODE 43,SETPOINTMANAGER:MIXEDAIR,NODE 43 OS DEFAULT SPM,Setpoint,1
 Non-Parent Node Connection,NODE 35,SETPOINTMANAGER:MIXEDAIR,NODE 42 OS DEFAULT SPM,Sensor,1
 Non-Parent Node Connection,NODE 41,SETPOINTMANAGER:MIXEDAIR,NODE 42 OS DEFAULT SPM,Sensor,1
 Non-Parent Node Connection,NODE 42,SETPOINTMANAGER:MIXEDAIR,NODE 42 OS DEFAULT SPM,Setpoint,1
 Non-Parent Node Connection,NODE 35,SETPOINTMANAGER:MIXEDAIR,NODE 41 OS DEFAULT SPM,Sensor,1
 Non-Parent Node Connection,NODE 41,SETPOINTMANAGER:MIXEDAIR,NODE 41 OS DEFAULT SPM,Sensor,1
 Non-Parent Node Connection,NODE 41,SETPOINTMANAGER:MIXEDAIR,NODE 41 OS DEFAULT SPM,Setpoint,1
 Non-Parent Node Connection,NODE 71,SETPOINTMANAGER:MIXEDAIR,NODE 80 OS DEFAULT SPM,Sensor,1
 Non-Parent Node Connection,NODE 77,SETPOINTMANAGER:MIXEDAIR,NODE 80 OS DEFAULT SPM,Sensor,1
 Non-Parent Node Connection,NODE 80,SETPOINTMANAGER:MIXEDAIR,NODE 80 OS DEFAULT SPM,Setpoint,1
 Non-Parent Node Connection,NODE 71,SETPOINTMANAGER:MIXEDAIR,NODE 79 OS DEFAULT SPM,Sensor,1
 Non-Parent Node Connection,NODE 77,SETPOINTMANAGER:MIXEDAIR,NODE 79 OS DEFAULT SPM,Sensor,1
 Non-Parent Node Connection,NODE 79,SETPOINTMANAGER:MIXEDAIR,NODE 79 OS DEFAULT SPM,Setpoint,1
 Non-Parent Node Connection,NODE 71,SETPOINTMANAGER:MIXEDAIR,NODE 78 OS DEFAULT SPM,Sensor,1
 Non-Parent Node Connection,NODE 77,SETPOINTMANAGER:MIXEDAIR,NODE 78 OS DEFAULT SPM,Sensor,1
 Non-Parent Node Connection,NODE 78,SETPOINTMANAGER:MIXEDAIR,NODE 78 OS DEFAULT SPM,Setpoint,1
 Non-Parent Node Connection,NODE 71,SETPOINTMANAGER:MIXEDAIR,NODE 77 OS DEFAULT SPM,Sensor,1
 Non-Parent Node Connection,NODE 77,SETPOINTMANAGER:MIXEDAIR,NODE 77 OS DEFAULT SPM,Sensor,1
 Non-Parent Node Connection,NODE 77,SETPOINTMANAGER:MIXEDAIR,NODE 77 OS DEFAULT SPM,Setpoint,1
 Non-Parent Node Connection,NODE 23,SETPOINTMANAGER:MIXEDAIR,NODE 32 OS DEFAULT SPM,Sensor,1
 Non-Parent Node Connection,NODE 29,SETPOINTMANAGER:MIXEDAIR,NODE 32 OS DEFAULT SPM,Sensor,1
 Non-Parent Node Connection,NODE 32,SETPOINTMANAGER:MIXEDAIR,NODE 32 OS DEFAULT SPM,Setpoint,1
 Non-Parent Node Connection,NODE 23,SETPOINTMANAGER:MIXEDAIR,NODE 31 OS DEFAULT SPM,Sensor,1
 Non-Parent Node Connection,NODE 29,SETPOINTMANAGER:MIXEDAIR,NODE 31 OS DEFAULT SPM,Sensor,1
 Non-Parent Node Connection,NODE 31,SETPOINTMANAGER:MIXEDAIR,NODE 31 OS DEFAULT SPM,Setpoint,1
 Non-Parent Node Connection,NODE 23,SETPOINTMANAGER:MIXEDAIR,NODE 30 OS DEFAULT SPM,Sensor,1
 Non-Parent Node Connection,NODE 29,SETPOINTMANAGER:MIXEDAIR,NODE 30 OS DEFAULT SPM,Sensor,1
 Non-Parent Node Connection,NODE 30,SETPOINTMANAGER:MIXEDAIR,NODE 30 OS DEFAULT SPM,Setpoint,1
 Non-Parent Node Connection,NODE 23,SETPOINTMANAGER:MIXEDAIR,NODE 29 OS DEFAULT SPM,Sensor,1
 Non-Parent Node Connection,NODE 29,SETPOINTMANAGER:MIXEDAIR,NODE 29 OS DEFAULT SPM,Sensor,1
 Non-Parent Node Connection,NODE 29,SETPOINTMANAGER:MIXEDAIR,NODE 29 OS DEFAULT SPM,Setpoint,1
 Non-Parent Node Connection,NODE 47,SETPOINTMANAGER:MIXEDAIR,NODE 56 OS DEFAULT SPM,Sensor,1
 Non-Parent Node Connection,NODE 53,SETPOINTMANAGER:MIXEDAIR,NODE 56 OS DEFAULT SPM,Sensor,1
 Non-Parent Node Connection,NODE 56,SETPOINTMANAGER:MIXEDAIR,NODE 56 OS DEFAULT SPM,Setpoint,1
 Non-Parent Node Connection,NODE 47,SETPOINTMANAGER:MIXEDAIR,NODE 55 OS DEFAULT SPM,Sensor,1
 Non-Parent Node Connection,NODE 53,SETPOINTMANAGER:MIXEDAIR,NODE 55 OS DEFAULT SPM,Sensor,1
 Non-Parent Node Connection,NODE 55,SETPOINTMANAGER:MIXEDAIR,NODE 55 OS DEFAULT SPM,Setpoint,1
 Non-Parent Node Connection,NODE 47,SETPOINTMANAGER:MIXEDAIR,NODE 54 OS DEFAULT SPM,Sensor,1
 Non-Parent Node Connection,NODE 53,SETPOINTMANAGER:MIXEDAIR,NODE 54 OS DEFAULT SPM,Sensor,1
 Non-Parent Node Connection,NODE 54,SETPOINTMANAGER:MIXEDAIR,NODE 54 OS DEFAULT SPM,Setpoint,1
 Non-Parent Node Connection,NODE 47,SETPOINTMANAGER:MIXEDAIR,NODE 53 OS DEFAULT SPM,Sensor,1
 Non-Parent Node Connection,NODE 53,SETPOINTMANAGER:MIXEDAIR,NODE 53 OS DEFAULT SPM,Sensor,1
 Non-Parent Node Connection,NODE 53,SETPOINTMANAGER:MIXEDAIR,NODE 53 OS DEFAULT SPM,Setpoint,1
 Non-Parent Node Connection,NODE 59,SETPOINTMANAGER:MIXEDAIR,NODE 68 OS DEFAULT SPM,Sensor,1
 Non-Parent Node Connection,NODE 65,SETPOINTMANAGER:MIXEDAIR,NODE 68 OS DEFAULT SPM,Sensor,1
 Non-Parent Node Connection,NODE 68,SETPOINTMANAGER:MIXEDAIR,NODE 68 OS DEFAULT SPM,Setpoint,1
 Non-Parent Node Connection,NODE 59,SETPOINTMANAGER:MIXEDAIR,NODE 67 OS DEFAULT SPM,Sensor,1
 Non-Parent Node Connection,NODE 65,SETPOINTMANAGER:MIXEDAIR,NODE 67 OS DEFAULT SPM,Sensor,1
 Non-Parent Node Connection,NODE 67,SETPOINTMANAGER:MIXEDAIR,NODE 67 OS DEFAULT SPM,Setpoint,1
 Non-Parent Node Connection,NODE 59,SETPOINTMANAGER:MIXEDAIR,NODE 66 OS DEFAULT SPM,Sensor,1
 Non-Parent Node Connection,NODE 65,SETPOINTMANAGER:MIXEDAIR,NODE 66 OS DEFAULT SPM,Sensor,1
 Non-Parent Node Connection,NODE 66,SETPOINTMANAGER:MIXEDAIR,NODE 66 OS DEFAULT SPM,Setpoint,1
 Non-Parent Node Connection,NODE 59,SETPOINTMANAGER:MIXEDAIR,NODE 65 OS DEFAULT SPM,Sensor,1
 Non-Parent Node Connection,NODE 65,SETPOINTMANAGER:MIXEDAIR,NODE 65 OS DEFAULT SPM,Sensor,1
 Non-Parent Node Connection,NODE 65,SETPOINTMANAGER:MIXEDAIR,NODE 65 OS DEFAULT SPM,Setpoint,1
 Non-Parent Node Connection,NODE 14,PIPE:ADIABATIC,PIPE ADIABATIC 1,Inlet,1
 Non-Parent Node Connection,NODE 15,PIPE:ADIABATIC,PIPE ADIABATIC 1,Outlet,1
 Non-Parent Node Connection,NODE 17,PIPE:ADIABATIC,PIPE ADIABATIC 3,Inlet,1
 Non-Parent Node Connection,NODE 7,PIPE:ADIABATIC,PIPE ADIABATIC 3,Outlet,1
 Non-Parent Node Connection,NODE 9,PIPE:ADIABATIC,PIPE ADIABATIC 4,Inlet,1
 Non-Parent Node Connection,NODE 18,PIPE:ADIABATIC,PIPE ADIABATIC 4,Outlet,1
 Non-Parent Node Connection,NODE 11,PIPE:ADIABATIC,PIPE ADIABATIC 2,Inlet,1
 Non-Parent Node Connection,NODE 16,PIPE:ADIABATIC,PIPE ADIABATIC 2,Outlet,1
 Non-Parent Node Connection,OFFICE SHARED SERVICE WATER LOOP DEMAND BYPASS PIPE INLET NODE,PIPE:ADIABATIC,OFFICE SHARED SERVICE WATER LOOP DEMAND BYPASS PIPE,Inlet,1
 Non-Parent Node Connection,OFFICE SHARED SERVICE WATER LOOP DEMAND BYPASS PIPE OUTLET NODE,PIPE:ADIABATIC,OFFICE SHARED SERVICE WATER LOOP DEMAND BYPASS PIPE,Outlet,1
 Non-Parent Node Connection,NODE 19,PIPE:ADIABATIC,PIPE ADIABATIC 5,Inlet,1
 Non-Parent Node Connection,NODE 10,PIPE:ADIABATIC,PIPE ADIABATIC 5,Outlet,1
 Non-Parent Node Connection,NODE 18,CONNECTOR:SPLITTER,OFFICE SHARED SERVICE WATER LOOP DEMAND SPLITTER,Inlet,1
 Non-Parent Node Connection,NODE 11,CONNECTOR:SPLITTER,OFFICE SHARED SERVICE WATER LOOP DEMAND SPLITTER,Outlet,1
 Non-Parent Node Connection,NODE 20,CONNECTOR:SPLITTER,OFFICE SHARED SERVICE WATER LOOP DEMAND SPLITTER,Outlet,1
 Non-Parent Node Connection,OFFICE SHARED SERVICE WATER LOOP DEMAND BYPASS PIPE INLET NODE,CONNECTOR:SPLITTER,OFFICE SHARED SERVICE WATER LOOP DEMAND SPLITTER,Outlet,1
 Non-Parent Node Connection,NODE 19,CONNECTOR:MIXER,OFFICE SHARED SERVICE WATER LOOP DEMAND MIXER,Outlet,1
 Non-Parent Node Connection,NODE 16,CONNECTOR:MIXER,OFFICE SHARED SERVICE WATER LOOP DEMAND MIXER,Inlet,1
 Non-Parent Node Connection,NODE 21,CONNECTOR:MIXER,OFFICE SHARED SERVICE WATER LOOP DEMAND MIXER,Inlet,1
 Non-Parent Node Connection,OFFICE SHARED SERVICE WATER LOOP DEMAND BYPASS PIPE OUTLET NODE,CONNECTOR:MIXER,OFFICE SHARED SERVICE WATER LOOP DEMAND MIXER,Inlet,1
 Non-Parent Node Connection,NODE 12,CONNECTOR:SPLITTER,OFFICE SHARED SERVICE WATER LOOP SUPPLY SPLITTER,Inlet,1
 Non-Parent Node Connection,NODE 8,CONNECTOR:SPLITTER,OFFICE SHARED SERVICE WATER LOOP SUPPLY SPLITTER,Outlet,1
 Non-Parent Node Connection,NODE 14,CONNECTOR:SPLITTER,OFFICE SHARED SERVICE WATER LOOP SUPPLY SPLITTER,Outlet,1
 Non-Parent Node Connection,NODE 17,CONNECTOR:MIXER,OFFICE SHARED SERVICE WATER LOOP SUPPLY MIXER,Outlet,1
 Non-Parent Node Connection,NODE 13,CONNECTOR:MIXER,OFFICE SHARED SERVICE WATER LOOP SUPPLY MIXER,Inlet,1
 Non-Parent Node Connection,NODE 15,CONNECTOR:MIXER,OFFICE SHARED SERVICE WATER LOOP SUPPLY MIXER,Inlet,1
 Non-Parent Node Connection,NODE 5,ZONEHVAC:EQUIPMENTCONNECTIONS,ZONE CORE SPACE - STORY GROUND,ZoneNode,1
 Non-Parent Node Connection,NODE 45,ZONEHVAC:EQUIPMENTCONNECTIONS,ZONE CORE SPACE - STORY GROUND,ZoneReturn,1
 Non-Parent Node Connection,NODE 38,ZONEHVAC:EQUIPMENTCONNECTIONS,ZONE CORE SPACE - STORY GROUND,ZoneInlet,1
 Non-Parent Node Connection,NODE 3,ZONEHVAC:EQUIPMENTCONNECTIONS,ZONE EAST PERIMETER SPACE - STORY GROUND,ZoneNode,1
 Non-Parent Node Connection,NODE 81,ZONEHVAC:EQUIPMENTCONNECTIONS,ZONE EAST PERIMETER SPACE - STORY GROUND,ZoneReturn,1
 Non-Parent Node Connection,NODE 74,ZONEHVAC:EQUIPMENTCONNECTIONS,ZONE EAST PERIMETER SPACE - STORY GROUND,ZoneInlet,1
 Non-Parent Node Connection,NODE 2,ZONEHVAC:EQUIPMENTCONNECTIONS,ZONE NORTH PERIMETER SPACE - STORY GROUND,ZoneNode,1
 Non-Parent Node Connection,NODE 33,ZONEHVAC:EQUIPMENTCONNECTIONS,ZONE NORTH PERIMETER SPACE - STORY GROUND,ZoneReturn,1
 Non-Parent Node Connection,NODE 26,ZONEHVAC:EQUIPMENTCONNECTIONS,ZONE NORTH PERIMETER SPACE - STORY GROUND,ZoneInlet,1
 Non-Parent Node Connection,NODE 4,ZONEHVAC:EQUIPMENTCONNECTIONS,ZONE SOUTH PERIMETER SPACE - STORY GROUND,ZoneNode,1
 Non-Parent Node Connection,NODE 57,ZONEHVAC:EQUIPMENTCONNECTIONS,ZONE SOUTH PERIMETER SPACE - STORY GROUND,ZoneReturn,1
 Non-Parent Node Connection,NODE 50,ZONEHVAC:EQUIPMENTCONNECTIONS,ZONE SOUTH PERIMETER SPACE - STORY GROUND,ZoneInlet,1
 Non-Parent Node Connection,NODE 1,ZONEHVAC:EQUIPMENTCONNECTIONS,ZONE WEST PERIMETER SPACE - STORY GROUND,ZoneNode,1
 Non-Parent Node Connection,NODE 69,ZONEHVAC:EQUIPMENTCONNECTIONS,ZONE WEST PERIMETER SPACE - STORY GROUND,ZoneReturn,1
 Non-Parent Node Connection,NODE 62,ZONEHVAC:EQUIPMENTCONNECTIONS,ZONE WEST PERIMETER SPACE - STORY GROUND,ZoneInlet,1
 Non-Parent Node Connection,NODE 20,WATERUSE:CONNECTIONS,OFFICE WHOLEBUILDING - SM OFFICE - CEC PRE-1978 WUC,Inlet,1
 Non-Parent Node Connection,NODE 21,WATERUSE:CONNECTIONS,OFFICE WHOLEBUILDING - SM OFFICE - CEC PRE-1978 WUC,Outlet,1
 Non-Parent Node Connection,NODE 36,AIRLOOPHVAC:ZONESPLITTER,AIR LOOP HVAC ZONE SPLITTER 2,Inlet,1
 Non-Parent Node Connection,NODE 38,AIRLOOPHVAC:ZONESPLITTER,AIR LOOP HVAC ZONE SPLITTER 2,Outlet,1
 Non-Parent Node Connection,NODE 72,AIRLOOPHVAC:ZONESPLITTER,AIR LOOP HVAC ZONE SPLITTER 5,Inlet,1
 Non-Parent Node Connection,NODE 74,AIRLOOPHVAC:ZONESPLITTER,AIR LOOP HVAC ZONE SPLITTER 5,Outlet,1
 Non-Parent Node Connection,NODE 24,AIRLOOPHVAC:ZONESPLITTER,AIR LOOP HVAC ZONE SPLITTER 1,Inlet,1
 Non-Parent Node Connection,NODE 26,AIRLOOPHVAC:ZONESPLITTER,AIR LOOP HVAC ZONE SPLITTER 1,Outlet,1
 Non-Parent Node Connection,NODE 48,AIRLOOPHVAC:ZONESPLITTER,AIR LOOP HVAC ZONE SPLITTER 3,Inlet,1
 Non-Parent Node Connection,NODE 50,AIRLOOPHVAC:ZONESPLITTER,AIR LOOP HVAC ZONE SPLITTER 3,Outlet,1
 Non-Parent Node Connection,NODE 60,AIRLOOPHVAC:ZONESPLITTER,AIR LOOP HVAC ZONE SPLITTER 4,Inlet,1
 Non-Parent Node Connection,NODE 62,AIRLOOPHVAC:ZONESPLITTER,AIR LOOP HVAC ZONE SPLITTER 4,Outlet,1
 Non-Parent Node Connection,NODE 38,AIRTERMINAL:SINGLEDUCT:UNCONTROLLED,ZONE CORE SPACE - STORY GROUND PSZ-AC DIFFUSER,Outlet,1
 Non-Parent Node Connection,NODE 74,AIRTERMINAL:SINGLEDUCT:UNCONTROLLED,ZONE EAST PERIMETER SPACE - STORY GROUND PSZ-AC DIFFUSER,Outlet,1
 Non-Parent Node Connection,NODE 26,AIRTERMINAL:SINGLEDUCT:UNCONTROLLED,ZONE NORTH PERIMETER SPACE - STORY GROUND PSZ-AC DIFFUSER,Outlet,1
 Non-Parent Node Connection,NODE 50,AIRTERMINAL:SINGLEDUCT:UNCONTROLLED,ZONE SOUTH PERIMETER SPACE - STORY GROUND PSZ-AC DIFFUSER,Outlet,1
 Non-Parent Node Connection,NODE 62,AIRTERMINAL:SINGLEDUCT:UNCONTROLLED,ZONE WEST PERIMETER SPACE - STORY GROUND PSZ-AC DIFFUSER,Outlet,1
 Non-Parent Node Connection,NODE 37,AIRLOOPHVAC:ZONEMIXER,AIR LOOP HVAC ZONE MIXER 2,Outlet,1
 Non-Parent Node Connection,NODE 45,AIRLOOPHVAC:ZONEMIXER,AIR LOOP HVAC ZONE MIXER 2,Inlet,1
 Non-Parent Node Connection,NODE 73,AIRLOOPHVAC:ZONEMIXER,AIR LOOP HVAC ZONE MIXER 5,Outlet,1
 Non-Parent Node Connection,NODE 81,AIRLOOPHVAC:ZONEMIXER,AIR LOOP HVAC ZONE MIXER 5,Inlet,1
 Non-Parent Node Connection,NODE 25,AIRLOOPHVAC:ZONEMIXER,AIR LOOP HVAC ZONE MIXER 1,Outlet,1
 Non-Parent Node Connection,NODE 33,AIRLOOPHVAC:ZONEMIXER,AIR LOOP HVAC ZONE MIXER 1,Inlet,1
 Non-Parent Node Connection,NODE 49,AIRLOOPHVAC:ZONEMIXER,AIR LOOP HVAC ZONE MIXER 3,Outlet,1
 Non-Parent Node Connection,NODE 57,AIRLOOPHVAC:ZONEMIXER,AIR LOOP HVAC ZONE MIXER 3,Inlet,1
 Non-Parent Node Connection,NODE 61,AIRLOOPHVAC:ZONEMIXER,AIR LOOP HVAC ZONE MIXER 4,Outlet,1
 Non-Parent Node Connection,NODE 69,AIRLOOPHVAC:ZONEMIXER,AIR LOOP HVAC ZONE MIXER 4,Inlet,1
 Non-Parent Node Connection,NODE 44,OUTDOORAIR:MIXER,ZONE CORE SPACE - STORY GROUND PSZ-AC OA SYS OUTDOOR AIR MIXER,Outlet,1
 Non-Parent Node Connection,NODE 39,OUTDOORAIR:MIXER,ZONE CORE SPACE - STORY GROUND PSZ-AC OA SYS OUTDOOR AIR MIXER,Inlet,1
 Non-Parent Node Connection,NODE 40,OUTDOORAIR:MIXER,ZONE CORE SPACE - STORY GROUND PSZ-AC OA SYS OUTDOOR AIR MIXER,ReliefAir,1
 Non-Parent Node Connection,NODE 34,OUTDOORAIR:MIXER,ZONE CORE SPACE - STORY GROUND PSZ-AC OA SYS OUTDOOR AIR MIXER,Inlet,1
 Non-Parent Node Connection,NODE 80,OUTDOORAIR:MIXER,ZONE EAST PERIMETER SPACE - STORY GROUND PSZ-AC OA SYS OUTDOOR AIR MIXER,Outlet,1
 Non-Parent Node Connection,NODE 75,OUTDOORAIR:MIXER,ZONE EAST PERIMETER SPACE - STORY GROUND PSZ-AC OA SYS OUTDOOR AIR MIXER,Inlet,1
 Non-Parent Node Connection,NODE 76,OUTDOORAIR:MIXER,ZONE EAST PERIMETER SPACE - STORY GROUND PSZ-AC OA SYS OUTDOOR AIR MIXER,ReliefAir,1
 Non-Parent Node Connection,NODE 70,OUTDOORAIR:MIXER,ZONE EAST PERIMETER SPACE - STORY GROUND PSZ-AC OA SYS OUTDOOR AIR MIXER,Inlet,1
 Non-Parent Node Connection,NODE 32,OUTDOORAIR:MIXER,ZONE NORTH PERIMETER SPACE - STORY GROUND PSZ-AC OA SYS OUTDOOR AIR MIXER,Outlet,1
 Non-Parent Node Connection,NODE 27,OUTDOORAIR:MIXER,ZONE NORTH PERIMETER SPACE - STORY GROUND PSZ-AC OA SYS OUTDOOR AIR MIXER,Inlet,1
 Non-Parent Node Connection,NODE 28,OUTDOORAIR:MIXER,ZONE NORTH PERIMETER SPACE - STORY GROUND PSZ-AC OA SYS OUTDOOR AIR MIXER,ReliefAir,1
 Non-Parent Node Connection,NODE 22,OUTDOORAIR:MIXER,ZONE NORTH PERIMETER SPACE - STORY GROUND PSZ-AC OA SYS OUTDOOR AIR MIXER,Inlet,1
 Non-Parent Node Connection,NODE 56,OUTDOORAIR:MIXER,ZONE SOUTH PERIMETER SPACE - STORY GROUND PSZ-AC OA SYS OUTDOOR AIR MIXER,Outlet,1
 Non-Parent Node Connection,NODE 51,OUTDOORAIR:MIXER,ZONE SOUTH PERIMETER SPACE - STORY GROUND PSZ-AC OA SYS OUTDOOR AIR MIXER,Inlet,1
 Non-Parent Node Connection,NODE 52,OUTDOORAIR:MIXER,ZONE SOUTH PERIMETER SPACE - STORY GROUND PSZ-AC OA SYS OUTDOOR AIR MIXER,ReliefAir,1
 Non-Parent Node Connection,NODE 46,OUTDOORAIR:MIXER,ZONE SOUTH PERIMETER SPACE - STORY GROUND PSZ-AC OA SYS OUTDOOR AIR MIXER,Inlet,1
 Non-Parent Node Connection,NODE 68,OUTDOORAIR:MIXER,ZONE WEST PERIMETER SPACE - STORY GROUND PSZ-AC OA SYS OUTDOOR AIR MIXER,Outlet,1
 Non-Parent Node Connection,NODE 63,OUTDOORAIR:MIXER,ZONE WEST PERIMETER SPACE - STORY GROUND PSZ-AC OA SYS OUTDOOR AIR MIXER,Inlet,1
 Non-Parent Node Connection,NODE 64,OUTDOORAIR:MIXER,ZONE WEST PERIMETER SPACE - STORY GROUND PSZ-AC OA SYS OUTDOOR AIR MIXER,ReliefAir,1
 Non-Parent Node Connection,NODE 58,OUTDOORAIR:MIXER,ZONE WEST PERIMETER SPACE - STORY GROUND PSZ-AC OA SYS OUTDOOR AIR MIXER,Inlet,1
 Non-Parent Node Connection,NODE 41,FAN:CONSTANTVOLUME,ZONE CORE SPACE - STORY GROUND PSZ-AC FAN,Inlet,1
 Non-Parent Node Connection,NODE 35,FAN:CONSTANTVOLUME,ZONE CORE SPACE - STORY GROUND PSZ-AC FAN,Outlet,1
 Non-Parent Node Connection,NODE 77,FAN:CONSTANTVOLUME,ZONE EAST PERIMETER SPACE - STORY GROUND PSZ-AC FAN,Inlet,1
 Non-Parent Node Connection,NODE 71,FAN:CONSTANTVOLUME,ZONE EAST PERIMETER SPACE - STORY GROUND PSZ-AC FAN,Outlet,1
 Non-Parent Node Connection,NODE 29,FAN:CONSTANTVOLUME,ZONE NORTH PERIMETER SPACE - STORY GROUND PSZ-AC FAN,Inlet,1
 Non-Parent Node Connection,NODE 23,FAN:CONSTANTVOLUME,ZONE NORTH PERIMETER SPACE - STORY GROUND PSZ-AC FAN,Outlet,1
 Non-Parent Node Connection,NODE 53,FAN:CONSTANTVOLUME,ZONE SOUTH PERIMETER SPACE - STORY GROUND PSZ-AC FAN,Inlet,1
 Non-Parent Node Connection,NODE 47,FAN:CONSTANTVOLUME,ZONE SOUTH PERIMETER SPACE - STORY GROUND PSZ-AC FAN,Outlet,1
 Non-Parent Node Connection,NODE 65,FAN:CONSTANTVOLUME,ZONE WEST PERIMETER SPACE - STORY GROUND PSZ-AC FAN,Inlet,1
 Non-Parent Node Connection,NODE 59,FAN:CONSTANTVOLUME,ZONE WEST PERIMETER SPACE - STORY GROUND PSZ-AC FAN,Outlet,1
 Non-Parent Node Connection,NODE 44,CONTROLLER:OUTDOORAIR,ZONE CORE SPACE - STORY GROUND PSZ-AC OA SYS CONTROLLER,Sensor,1
 Non-Parent Node Connection,NODE 39,CONTROLLER:OUTDOORAIR,ZONE CORE SPACE - STORY GROUND PSZ-AC OA SYS CONTROLLER,Actuator,1
 Non-Parent Node Connection,NODE 40,CONTROLLER:OUTDOORAIR,ZONE CORE SPACE - STORY GROUND PSZ-AC OA SYS CONTROLLER,Actuator,1
 Non-Parent Node Connection,NODE 34,CONTROLLER:OUTDOORAIR,ZONE CORE SPACE - STORY GROUND PSZ-AC OA SYS CONTROLLER,Sensor,1
 Non-Parent Node Connection,NODE 80,CONTROLLER:OUTDOORAIR,ZONE EAST PERIMETER SPACE - STORY GROUND PSZ-AC OA SYS CONTROLLER,Sensor,1
 Non-Parent Node Connection,NODE 75,CONTROLLER:OUTDOORAIR,ZONE EAST PERIMETER SPACE - STORY GROUND PSZ-AC OA SYS CONTROLLER,Actuator,1
 Non-Parent Node Connection,NODE 76,CONTROLLER:OUTDOORAIR,ZONE EAST PERIMETER SPACE - STORY GROUND PSZ-AC OA SYS CONTROLLER,Actuator,1
 Non-Parent Node Connection,NODE 70,CONTROLLER:OUTDOORAIR,ZONE EAST PERIMETER SPACE - STORY GROUND PSZ-AC OA SYS CONTROLLER,Sensor,1
 Non-Parent Node Connection,NODE 32,CONTROLLER:OUTDOORAIR,ZONE NORTH PERIMETER SPACE - STORY GROUND PSZ-AC OA SYS CONTROLLER,Sensor,1
 Non-Parent Node Connection,NODE 27,CONTROLLER:OUTDOORAIR,ZONE NORTH PERIMETER SPACE - STORY GROUND PSZ-AC OA SYS CONTROLLER,Actuator,1
 Non-Parent Node Connection,NODE 28,CONTROLLER:OUTDOORAIR,ZONE NORTH PERIMETER SPACE - STORY GROUND PSZ-AC OA SYS CONTROLLER,Actuator,1
 Non-Parent Node Connection,NODE 22,CONTROLLER:OUTDOORAIR,ZONE NORTH PERIMETER SPACE - STORY GROUND PSZ-AC OA SYS CONTROLLER,Sensor,1
 Non-Parent Node Connection,NODE 56,CONTROLLER:OUTDOORAIR,ZONE SOUTH PERIMETER SPACE - STORY GROUND PSZ-AC OA SYS CONTROLLER,Sensor,1
 Non-Parent Node Connection,NODE 51,CONTROLLER:OUTDOORAIR,ZONE SOUTH PERIMETER SPACE - STORY GROUND PSZ-AC OA SYS CONTROLLER,Actuator,1
 Non-Parent Node Connection,NODE 52,CONTROLLER:OUTDOORAIR,ZONE SOUTH PERIMETER SPACE - STORY GROUND PSZ-AC OA SYS CONTROLLER,Actuator,1
 Non-Parent Node Connection,NODE 46,CONTROLLER:OUTDOORAIR,ZONE SOUTH PERIMETER SPACE - STORY GROUND PSZ-AC OA SYS CONTROLLER,Sensor,1
 Non-Parent Node Connection,NODE 68,CONTROLLER:OUTDOORAIR,ZONE WEST PERIMETER SPACE - STORY GROUND PSZ-AC OA SYS CONTROLLER,Sensor,1
 Non-Parent Node Connection,NODE 63,CONTROLLER:OUTDOORAIR,ZONE WEST PERIMETER SPACE - STORY GROUND PSZ-AC OA SYS CONTROLLER,Actuator,1
 Non-Parent Node Connection,NODE 64,CONTROLLER:OUTDOORAIR,ZONE WEST PERIMETER SPACE - STORY GROUND PSZ-AC OA SYS CONTROLLER,Actuator,1
 Non-Parent Node Connection,NODE 58,CONTROLLER:OUTDOORAIR,ZONE WEST PERIMETER SPACE - STORY GROUND PSZ-AC OA SYS CONTROLLER,Sensor,1
 Non-Parent Node Connection,NODE 44,COIL:COOLING:DX:SINGLESPEED,ZONE CORE SPACE - STORY GROUND PSZ-AC 1SPD DX AC CLG COIL 36KBTU/HR 6.8EER,Inlet,1
 Non-Parent Node Connection,NODE 43,COIL:COOLING:DX:SINGLESPEED,ZONE CORE SPACE - STORY GROUND PSZ-AC 1SPD DX AC CLG COIL 36KBTU/HR 6.8EER,Outlet,1
 Non-Parent Node Connection,NODE 80,COIL:COOLING:DX:SINGLESPEED,ZONE EAST PERIMETER SPACE - STORY GROUND PSZ-AC 1SPD DX AC CLG COIL 30KBTU/HR 6.8EER,Inlet,1
 Non-Parent Node Connection,NODE 79,COIL:COOLING:DX:SINGLESPEED,ZONE EAST PERIMETER SPACE - STORY GROUND PSZ-AC 1SPD DX AC CLG COIL 30KBTU/HR 6.8EER,Outlet,1
 Non-Parent Node Connection,NODE 32,COIL:COOLING:DX:SINGLESPEED,ZONE NORTH PERIMETER SPACE - STORY GROUND PSZ-AC 1SPD DX AC CLG COIL 26KBTU/HR 6.8EER,Inlet,1
 Non-Parent Node Connection,NODE 31,COIL:COOLING:DX:SINGLESPEED,ZONE NORTH PERIMETER SPACE - STORY GROUND PSZ-AC 1SPD DX AC CLG COIL 26KBTU/HR 6.8EER,Outlet,1
 Non-Parent Node Connection,NODE 56,COIL:COOLING:DX:SINGLESPEED,ZONE SOUTH PERIMETER SPACE - STORY GROUND PSZ-AC 1SPD DX AC CLG COIL 41KBTU/HR 6.8EER,Inlet,1
 Non-Parent Node Connection,NODE 55,COIL:COOLING:DX:SINGLESPEED,ZONE SOUTH PERIMETER SPACE - STORY GROUND PSZ-AC 1SPD DX AC CLG COIL 41KBTU/HR 6.8EER,Outlet,1
 Non-Parent Node Connection,NODE 68,COIL:COOLING:DX:SINGLESPEED,ZONE WEST PERIMETER SPACE - STORY GROUND PSZ-AC 1SPD DX AC CLG COIL 33KBTU/HR 6.8EER,Inlet,1
 Non-Parent Node Connection,NODE 67,COIL:COOLING:DX:SINGLESPEED,ZONE WEST PERIMETER SPACE - STORY GROUND PSZ-AC 1SPD DX AC CLG COIL 33KBTU/HR 6.8EER,Outlet,1
 Non-Parent Node Connection,NODE 42,COIL:HEATING:ELECTRIC,ZONE CORE SPACE - STORY GROUND PSZ-AC ELECTRIC BACKUP HTG COIL,Inlet,1
 Non-Parent Node Connection,NODE 41,COIL:HEATING:ELECTRIC,ZONE CORE SPACE - STORY GROUND PSZ-AC ELECTRIC BACKUP HTG COIL,Outlet,1
 Non-Parent Node Connection,NODE 41,COIL:HEATING:ELECTRIC,ZONE CORE SPACE - STORY GROUND PSZ-AC ELECTRIC BACKUP HTG COIL,Sensor,1
 Non-Parent Node Connection,NODE 78,COIL:HEATING:ELECTRIC,ZONE EAST PERIMETER SPACE - STORY GROUND PSZ-AC ELECTRIC BACKUP HTG COIL,Inlet,1
 Non-Parent Node Connection,NODE 77,COIL:HEATING:ELECTRIC,ZONE EAST PERIMETER SPACE - STORY GROUND PSZ-AC ELECTRIC BACKUP HTG COIL,Outlet,1
 Non-Parent Node Connection,NODE 77,COIL:HEATING:ELECTRIC,ZONE EAST PERIMETER SPACE - STORY GROUND PSZ-AC ELECTRIC BACKUP HTG COIL,Sensor,1
 Non-Parent Node Connection,NODE 30,COIL:HEATING:ELECTRIC,ZONE NORTH PERIMETER SPACE - STORY GROUND PSZ-AC ELECTRIC BACKUP HTG COIL,Inlet,1
 Non-Parent Node Connection,NODE 29,COIL:HEATING:ELECTRIC,ZONE NORTH PERIMETER SPACE - STORY GROUND PSZ-AC ELECTRIC BACKUP HTG COIL,Outlet,1
 Non-Parent Node Connection,NODE 29,COIL:HEATING:ELECTRIC,ZONE NORTH PERIMETER SPACE - STORY GROUND PSZ-AC ELECTRIC BACKUP HTG COIL,Sensor,1
 Non-Parent Node Connection,NODE 54,COIL:HEATING:ELECTRIC,ZONE SOUTH PERIMETER SPACE - STORY GROUND PSZ-AC ELECTRIC BACKUP HTG COIL,Inlet,1
 Non-Parent Node Connection,NODE 53,COIL:HEATING:ELECTRIC,ZONE SOUTH PERIMETER SPACE - STORY GROUND PSZ-AC ELECTRIC BACKUP HTG COIL,Outlet,1
 Non-Parent Node Connection,NODE 53,COIL:HEATING:ELECTRIC,ZONE SOUTH PERIMETER SPACE - STORY GROUND PSZ-AC ELECTRIC BACKUP HTG COIL,Sensor,1
 Non-Parent Node Connection,NODE 66,COIL:HEATING:ELECTRIC,ZONE WEST PERIMETER SPACE - STORY GROUND PSZ-AC ELECTRIC BACKUP HTG COIL,Inlet,1
 Non-Parent Node Connection,NODE 65,COIL:HEATING:ELECTRIC,ZONE WEST PERIMETER SPACE - STORY GROUND PSZ-AC ELECTRIC BACKUP HTG COIL,Outlet,1
 Non-Parent Node Connection,NODE 65,COIL:HEATING:ELECTRIC,ZONE WEST PERIMETER SPACE - STORY GROUND PSZ-AC ELECTRIC BACKUP HTG COIL,Sensor,1
 Non-Parent Node Connection,NODE 43,COIL:HEATING:FUEL,ZONE CORE SPACE - STORY GROUND PSZ-AC GAS HTG COIL,Inlet,1
 Non-Parent Node Connection,NODE 42,COIL:HEATING:FUEL,ZONE CORE SPACE - STORY GROUND PSZ-AC GAS HTG COIL,Outlet,1
 Non-Parent Node Connection,NODE 42,COIL:HEATING:FUEL,ZONE CORE SPACE - STORY GROUND PSZ-AC GAS HTG COIL,Sensor,1
 Non-Parent Node Connection,NODE 79,COIL:HEATING:FUEL,ZONE EAST PERIMETER SPACE - STORY GROUND PSZ-AC GAS HTG COIL,Inlet,1
 Non-Parent Node Connection,NODE 78,COIL:HEATING:FUEL,ZONE EAST PERIMETER SPACE - STORY GROUND PSZ-AC GAS HTG COIL,Outlet,1
 Non-Parent Node Connection,NODE 78,COIL:HEATING:FUEL,ZONE EAST PERIMETER SPACE - STORY GROUND PSZ-AC GAS HTG COIL,Sensor,1
 Non-Parent Node Connection,NODE 31,COIL:HEATING:FUEL,ZONE NORTH PERIMETER SPACE - STORY GROUND PSZ-AC GAS HTG COIL,Inlet,1
 Non-Parent Node Connection,NODE 30,COIL:HEATING:FUEL,ZONE NORTH PERIMETER SPACE - STORY GROUND PSZ-AC GAS HTG COIL,Outlet,1
 Non-Parent Node Connection,NODE 30,COIL:HEATING:FUEL,ZONE NORTH PERIMETER SPACE - STORY GROUND PSZ-AC GAS HTG COIL,Sensor,1
 Non-Parent Node Connection,NODE 55,COIL:HEATING:FUEL,ZONE SOUTH PERIMETER SPACE - STORY GROUND PSZ-AC GAS HTG COIL,Inlet,1
 Non-Parent Node Connection,NODE 54,COIL:HEATING:FUEL,ZONE SOUTH PERIMETER SPACE - STORY GROUND PSZ-AC GAS HTG COIL,Outlet,1
 Non-Parent Node Connection,NODE 54,COIL:HEATING:FUEL,ZONE SOUTH PERIMETER SPACE - STORY GROUND PSZ-AC GAS HTG COIL,Sensor,1
 Non-Parent Node Connection,NODE 67,COIL:HEATING:FUEL,ZONE WEST PERIMETER SPACE - STORY GROUND PSZ-AC GAS HTG COIL,Inlet,1
 Non-Parent Node Connection,NODE 66,COIL:HEATING:FUEL,ZONE WEST PERIMETER SPACE - STORY GROUND PSZ-AC GAS HTG COIL,Outlet,1
 Non-Parent Node Connection,NODE 66,COIL:HEATING:FUEL,ZONE WEST PERIMETER SPACE - STORY GROUND PSZ-AC GAS HTG COIL,Sensor,1
 Non-Parent Node Connection,NODE 6,PUMP:CONSTANTSPEED,SERVICE WATER LOOP PUMP,Inlet,1
 Non-Parent Node Connection,NODE 12,PUMP:CONSTANTSPEED,SERVICE WATER LOOP PUMP,Outlet,1
