{
   "completed_at" : "20180302T025541Z",
   "completed_status" : "Success",
   "current_step" : 33,
   "eplusout_err" : "Program Version,EnergyPlus, Version 8.7.0-78a111df4a, YMD=2018.03.01 18:55,IDD_Version 8.7.0\n   ************* Beginning Zone Sizing Calculations\n   ** Warning ** ProcessScheduleInput: Schedule:Day:Interval=\"0.05 FRACTION DEFAULT\", Blank Schedule Type Limits Name input -- will not be validated.\n   ** Warning ** ProcessScheduleInput: Schedule:Day:Interval=\"0.2 FRACTION DEFAULT\", Blank Schedule Type Limits Name input -- will not be validated.\n   ** Warning ** ProcessScheduleInput: Schedule:Day:Interval=\"43.3 C DEFAULT\", Blank Schedule Type Limits Name input -- will not be validated.\n   ** Warning ** ProcessScheduleInput: Schedule:Day:Interval=\"ECONOMIZER MAX OA FRACTION 70 PCT DEFAULT\", Blank Schedule Type Limits Name input -- will not be validated.\n   ** Warning ** ProcessScheduleInput: Schedule:Day:Interval=\"RETAILSTANDALONE PSZ_ECON_MAXOAFRAC_SCH DEFAULT\", Blank Schedule Type Limits Name input -- will not be validated.\n   ** Warning ** ProcessScheduleInput: Schedule:Day:Interval=\"RETAILSTANDALONE PSZ_ECON_MAXOAFRAC_SCH SUMMER DESIGN DAY\", Blank Schedule Type Limits Name input -- will not be validated.\n   ** Warning ** ProcessScheduleInput: Schedule:Day:Interval=\"RETAILSTANDALONE PSZ_ECON_MAXOAFRAC_SCH WINTER DESIGN DAY\", Blank Schedule Type Limits Name input -- will not be validated.\n   ** Warning ** ProcessScheduleInput: Schedule:Day:Interval=\"SCHEDULE DAY 11\", Blank Schedule Type Limits Name input -- will not be validated.\n   ** Warning ** ProcessScheduleInput: Schedule:Day:Interval=\"SCHEDULE DAY 12\", Blank Schedule Type Limits Name input -- will not be validated.\n   ** Warning ** ProcessScheduleInput: Schedule:Day:Interval=\"SCHEDULE DAY 13\", Blank Schedule Type Limits Name input -- will not be validated.\n   ** Warning ** ProcessScheduleInput: Schedule:Day:Interval=\"SCHEDULE DAY 14\", Blank Schedule Type Limits Name input -- will not be validated.\n   ** Warning ** ProcessScheduleInput: Schedule:Day:Interval=\"SCHEDULE DAY 15\", Blank Schedule Type Limits Name input -- will not be validated.\n   ** Warning ** ProcessScheduleInput: Schedule:Day:Interval=\"SCHEDULE DAY 16\", Blank Schedule Type Limits Name input -- will not be validated.\n   ** Warning ** ProcessScheduleInput: Schedule:Day:Interval=\"SCHEDULE DAY 17\", Blank Schedule Type Limits Name input -- will not be validated.\n   ** Warning ** ProcessScheduleInput: Schedule:Day:Interval=\"SCHEDULE DAY 18\", Blank Schedule Type Limits Name input -- will not be validated.\n   ** Warning ** ProcessScheduleInput: Schedule:Day:Interval=\"SCHEDULE DAY 19\", Blank Schedule Type Limits Name input -- will not be validated.\n   ** Warning ** ProcessScheduleInput: Schedule:Day:Interval=\"SCHEDULE DAY 2\", Blank Schedule Type Limits Name input -- will not be validated.\n   ** Warning ** ProcessScheduleInput: Schedule:Day:Interval=\"SCHEDULE DAY 20\", Blank Schedule Type Limits Name input -- will not be validated.\n   ** Warning ** ProcessScheduleInput: Schedule:Day:Interval=\"SCHEDULE DAY 21\", Blank Schedule Type Limits Name input -- will not be validated.\n   ** Warning ** ProcessScheduleInput: Schedule:Day:Interval=\"SCHEDULE DAY 22\", Blank Schedule Type Limits Name input -- will not be validated.\n   ** Warning ** ProcessScheduleInput: Schedule:Day:Interval=\"SCHEDULE DAY 23\", Blank Schedule Type Limits Name input -- will not be validated.\n   ** Warning ** ProcessScheduleInput: Schedule:Day:Interval=\"SCHEDULE DAY 24\", Blank Schedule Type Limits Name input -- will not be validated.\n   ** Warning ** ProcessScheduleInput: Schedule:Day:Interval=\"SCHEDULE DAY 3\", Blank Schedule Type Limits Name input -- will not be validated.\n   ** Warning ** ProcessScheduleInput: Schedule:Day:Interval=\"SCHEDULE DAY 4\", Blank Schedule Type Limits Name input -- will not be validated.\n   ** Warning ** ProcessScheduleInput: Schedule:Day:Interval=\"SCHEDULE DAY 5\", Blank Schedule Type Limits Name input -- will not be validated.\n   ** Warning ** ProcessScheduleInput: Schedule:Day:Interval=\"SCHEDULE DAY 6\", Blank Schedule Type Limits Name input -- will not be validated.\n   ** Warning ** ProcessScheduleInput: Schedule:Day:Interval=\"SCHEDULE DAY 7\", Blank Schedule Type Limits Name input -- will not be validated.\n   ** Warning ** ProcessScheduleInput: Schedule:Day:Interval=\"ZONE CORE SPACE - STORY GROUND PSZ-AC OCC SCH DEFAULT\", Blank Schedule Type Limits Name input -- will not be validated.\n   ** Warning ** ProcessScheduleInput: Schedule:Day:Interval=\"ZONE CORE SPACE - STORY GROUND PSZ-AC OCC SCH FRIDAY\", Blank Schedule Type Limits Name input -- will not be validated.\n   ** Warning ** ProcessScheduleInput: Schedule:Day:Interval=\"ZONE CORE SPACE - STORY GROUND PSZ-AC OCC SCH MONDAY\", Blank Schedule Type Limits Name input -- will not be validated.\n   ** Warning ** ProcessScheduleInput: Schedule:Day:Interval=\"ZONE CORE SPACE - STORY GROUND PSZ-AC OCC SCH SATURDAY\", Blank Schedule Type Limits Name input -- will not be validated.\n   ** Warning ** ProcessScheduleInput: Schedule:Day:Interval=\"ZONE CORE SPACE - STORY GROUND PSZ-AC OCC SCH SUMMER DESIGN DAY\", Blank Schedule Type Limits Name input -- will not be validated.\n   ** Warning ** ProcessScheduleInput: Schedule:Day:Interval=\"ZONE CORE SPACE - STORY GROUND PSZ-AC OCC SCH SUNDAY\", Blank Schedule Type Limits Name input -- will not be validated.\n   ** Warning ** ProcessScheduleInput: Schedule:Day:Interval=\"ZONE CORE SPACE - STORY GROUND PSZ-AC OCC SCH THURSDAY\", Blank Schedule Type Limits Name input -- will not be validated.\n   ** Warning ** ProcessScheduleInput: Schedule:Day:Interval=\"ZONE CORE SPACE - STORY GROUND PSZ-AC OCC SCH TUESDAY\", Blank Schedule Type Limits Name input -- will not be validated.\n   ** Warning ** ProcessScheduleInput: Schedule:Day:Interval=\"ZONE CORE SPACE - STORY GROUND PSZ-AC OCC SCH WEDNESDAY\", Blank Schedule Type Limits Name input -- will not be validated.\n   ** Warning ** ProcessScheduleInput: Schedule:Day:Interval=\"ZONE CORE SPACE - STORY GROUND PSZ-AC OCC SCH WINTER DESIGN DAY\", Blank Schedule Type Limits Name input -- will not be validated.\n   ** Warning ** ProcessScheduleInput: Schedule:Day:Interval=\"ZONE EAST PERIMETER SPACE - STORY GROUND PSZ-AC OCC SCH DEFAULT\", Blank Schedule Type Limits Name input -- will not be validated.\n   ** Warning ** ProcessScheduleInput: Schedule:Day:Interval=\"ZONE EAST PERIMETER SPACE - STORY GROUND PSZ-AC OCC SCH FRIDAY\", Blank Schedule Type Limits Name input -- will not be validated.\n   ** Warning ** ProcessScheduleInput: Schedule:Day:Interval=\"ZONE EAST PERIMETER SPACE - STORY GROUND PSZ-AC OCC SCH MONDAY\", Blank Schedule Type Limits Name input -- will not be validated.\n   ** Warning ** ProcessScheduleInput: Schedule:Day:Interval=\"ZONE EAST PERIMETER SPACE - STORY GROUND PSZ-AC OCC SCH SATURDAY\", Blank Schedule Type Limits Name input -- will not be validated.\n   ** Warning ** ProcessScheduleInput: Schedule:Day:Interval=\"ZONE EAST PERIMETER SPACE - STORY GROUND PSZ-AC OCC SCH SUMMER DESIGN DAY\", Blank Schedule Type Limits Name input -- will not be validated.\n   ** Warning ** ProcessScheduleInput: Schedule:Day:Interval=\"ZONE EAST PERIMETER SPACE - STORY GROUND PSZ-AC OCC SCH SUNDAY\", Blank Schedule Type Limits Name input -- will not be validated.\n   ** Warning ** ProcessScheduleInput: Schedule:Day:Interval=\"ZONE EAST PERIMETER SPACE - STORY GROUND PSZ-AC OCC SCH THURSDAY\", Blank Schedule Type Limits Name input -- will not be validated.\n   ** Warning ** ProcessScheduleInput: Schedule:Day:Interval=\"ZONE EAST PERIMETER SPACE - STORY GROUND PSZ-AC OCC SCH TUESDAY\", Blank Schedule Type Limits Name input -- will not be validated.\n   ** Warning ** ProcessScheduleInput: Schedule:Day:Interval=\"ZONE EAST PERIMETER SPACE - STORY GROUND PSZ-AC OCC SCH WEDNESDAY\", Blank Schedule Type Limits Name input -- will not be validated.\n   ** Warning ** ProcessScheduleInput: Schedule:Day:Interval=\"ZONE EAST PERIMETER SPACE - STORY GROUND PSZ-AC OCC SCH WINTER DESIGN DAY\", Blank Schedule Type Limits Name input -- will not be validated.\n   ** Warning ** ProcessScheduleInput: Schedule:Day:Interval=\"ZONE SOUTH PERIMETER SPACE - STORY GROUND PSZ-AC OCC SCH DEFAULT\", Blank Schedule Type Limits Name input -- will not be validated.\n   ** Warning ** ProcessScheduleInput: Schedule:Day:Interval=\"ZONE SOUTH PERIMETER SPACE - STORY GROUND PSZ-AC OCC SCH FRIDAY\", Blank Schedule Type Limits Name input -- will not be validated.\n   ** Warning ** ProcessScheduleInput: Schedule:Day:Interval=\"ZONE SOUTH PERIMETER SPACE - STORY GROUND PSZ-AC OCC SCH MONDAY\", Blank Schedule Type Limits Name input -- will not be validated.\n   ** Warning ** ProcessScheduleInput: Schedule:Day:Interval=\"ZONE SOUTH PERIMETER SPACE - STORY GROUND PSZ-AC OCC SCH SATURDAY\", Blank Schedule Type Limits Name input -- will not be validated.\n   ** Warning ** ProcessScheduleInput: Schedule:Day:Interval=\"ZONE SOUTH PERIMETER SPACE - STORY GROUND PSZ-AC OCC SCH SUMMER DESIGN DAY\", Blank Schedule Type Limits Name input -- will not be validated.\n   ** Warning ** ProcessScheduleInput: Schedule:Day:Interval=\"ZONE SOUTH PERIMETER SPACE - STORY GROUND PSZ-AC OCC SCH SUNDAY\", Blank Schedule Type Limits Name input -- will not be validated.\n   ** Warning ** ProcessScheduleInput: Schedule:Day:Interval=\"ZONE SOUTH PERIMETER SPACE - STORY GROUND PSZ-AC OCC SCH THURSDAY\", Blank Schedule Type Limits Name input -- will not be validated.\n   ** Warning ** ProcessScheduleInput: Schedule:Day:Interval=\"ZONE SOUTH PERIMETER SPACE - STORY GROUND PSZ-AC OCC SCH TUESDAY\", Blank Schedule Type Limits Name input -- will not be validated.\n   ** Warning ** ProcessScheduleInput: Schedule:Day:Interval=\"ZONE SOUTH PERIMETER SPACE - STORY GROUND PSZ-AC OCC SCH WEDNESDAY\", Blank Schedule Type Limits Name input -- will not be validated.\n   ** Warning ** ProcessScheduleInput: Schedule:Day:Interval=\"ZONE SOUTH PERIMETER SPACE - STORY GROUND PSZ-AC OCC SCH WINTER DESIGN DAY\", Blank Schedule Type Limits Name input -- will not be validated.\n   ** Warning ** ProcessScheduleInput: Schedule:Day:Interval=\"ZONE WEST PERIMETER SPACE - STORY GROUND PSZ-AC OCC SCH DEFAULT\", Blank Schedule Type Limits Name input -- will not be validated.\n   ** Warning ** ProcessScheduleInput: Schedule:Day:Interval=\"ZONE WEST PERIMETER SPACE - STORY GROUND PSZ-AC OCC SCH FRIDAY\", Blank Schedule Type Limits Name input -- will not be validated.\n   ** Warning ** ProcessScheduleInput: Schedule:Day:Interval=\"ZONE WEST PERIMETER SPACE - STORY GROUND PSZ-AC OCC SCH MONDAY\", Blank Schedule Type Limits Name input -- will not be validated.\n   ** Warning ** ProcessScheduleInput: Schedule:Day:Interval=\"ZONE WEST PERIMETER SPACE - STORY GROUND PSZ-AC OCC SCH SATURDAY\", Blank Schedule Type Limits Name input -- will not be validated.\n   ** Warning ** ProcessScheduleInput: Schedule:Day:Interval=\"ZONE WEST PERIMETER SPACE - STORY GROUND PSZ-AC OCC SCH SUMMER DESIGN DAY\", Blank Schedule Type Limits Name input -- will not be validated.\n   ** Warning ** ProcessScheduleInput: Schedule:Day:Interval=\"ZONE WEST PERIMETER SPACE - STORY GROUND PSZ-AC OCC SCH SUNDAY\", Blank Schedule Type Limits Name input -- will not be validated.\n   ** Warning ** ProcessScheduleInput: Schedule:Day:Interval=\"ZONE WEST PERIMETER SPACE - STORY GROUND PSZ-AC OCC SCH THURSDAY\", Blank Schedule Type Limits Name input -- will not be validated.\n   ** Warning ** ProcessScheduleInput: Schedule:Day:Interval=\"ZONE WEST PERIMETER SPACE - STORY GROUND PSZ-AC OCC SCH TUESDAY\", Blank Schedule Type Limits Name input -- will not be validated.\n   ** Warning ** ProcessScheduleInput: Schedule:Day:Interval=\"ZONE WEST PERIMETER SPACE - STORY GROUND PSZ-AC OCC SCH WEDNESDAY\", Blank Schedule Type Limits Name input -- will not be validated.\n   ** Warning ** ProcessScheduleInput: Schedule:Day:Interval=\"ZONE WEST PERIMETER SPACE - STORY GROUND PSZ-AC OCC SCH WINTER DESIGN DAY\", Blank Schedule Type Limits Name input -- will not be validated.\n   ** Warning ** ProcessScheduleInput: Schedule:Year=\"0.05 FRACTION\", Blank Schedule Type Limits Name input -- will not be validated.\n   ** Warning ** ProcessScheduleInput: Schedule:Year=\"0.2 FRACTION\", Blank Schedule Type Limits Name input -- will not be validated.\n   ** Warning ** ProcessScheduleInput: Schedule:Year=\"43.3 C\", Blank Schedule Type Limits Name input -- will not be validated.\n   ** Warning ** ProcessScheduleInput: Schedule:Year=\"ECONOMIZER MAX OA FRACTION 70 PCT\", Blank Schedule Type Limits Name input -- will not be validated.\n   ** Warning ** ProcessScheduleInput: Schedule:Year=\"RETAILSTANDALONE PSZ_ECON_MAXOAFRAC_SCH\", Blank Schedule Type Limits Name input -- will not be validated.\n   ** Warning ** ProcessScheduleInput: Schedule:Year=\"ZONE CORE SPACE - STORY GROUND PSZ-AC OCC SCH\", Blank Schedule Type Limits Name input -- will not be validated.\n   ** Warning ** ProcessScheduleInput: Schedule:Year=\"ZONE EAST PERIMETER SPACE - STORY GROUND PSZ-AC OCC SCH\", Blank Schedule Type Limits Name input -- will not be validated.\n   ** Warning ** ProcessScheduleInput: Schedule:Year=\"ZONE SOUTH PERIMETER SPACE - STORY GROUND PSZ-AC OCC SCH\", Blank Schedule Type Limits Name input -- will not be validated.\n   ** Warning ** ProcessScheduleInput: Schedule:Year=\"ZONE WEST PERIMETER SPACE - STORY GROUND PSZ-AC OCC SCH\", Blank Schedule Type Limits Name input -- will not be validated.\n   ** Warning ** ProcessScheduleInput: Schedule:Compact=\"A_1_03/01/17\" has missing day types in Through=4/30\n   **   ~~~   ** Last \"For\" field=FOR: WEEKENDS HOLIDAYS\n   **   ~~~   ** Missing day types=\"SummerDesignDay\",\"WinterDesignDay\",\"CustomDay1\",\"CustomDay2\"\n   **   ~~~   ** Missing day types will have 0.0 as Schedule Values\n   ** Warning ** ProcessScheduleInput: ProcessIntervalFields, Invalid \"Until\" field encountered=UNTIL: 24:30\n   **   ~~~   ** Occurred in Day Schedule=A_1_03/01/17_dy_3\n   **   ~~~   ** Terminating the field at 24:00\n   ** Warning ** ProcessScheduleInput: ProcessIntervalFields, Invalid \"Until\" field encountered=UNTIL: 24:30\n   **   ~~~   ** Occurred in Day Schedule=A_1_03/01/17_dy_4\n   **   ~~~   ** Terminating the field at 24:00\n   ** Warning ** ProcessScheduleInput: Schedule:Compact=\"A_1_03/01/17\" has missing day types in Through=10/31\n   **   ~~~   ** Last \"For\" field=FOR: WEEKENDS HOLIDAYS\n   **   ~~~   ** Missing day types=\"SummerDesignDay\",\"WinterDesignDay\",\"CustomDay1\",\"CustomDay2\"\n   **   ~~~   ** Missing day types will have 0.0 as Schedule Values\n   ** Warning ** ProcessScheduleInput: Schedule:Compact=\"A_1_03/01/17\" has missing day types in Through=12/31\n   **   ~~~   ** Last \"For\" field=FOR: WEEKENDS HOLIDAYS\n   **   ~~~   ** Missing day types=\"SummerDesignDay\",\"WinterDesignDay\",\"CustomDay1\",\"CustomDay2\"\n   **   ~~~   ** Missing day types will have 0.0 as Schedule Values\n   ** Warning ** ProcessScheduleInput: Schedule:Constant=\"ALWAYS OFF DISCRETE\", Blank Schedule Type Limits Name input -- will not be validated.\n   ** Warning ** ProcessScheduleInput: Schedule:Constant=\"ALWAYS ON CONTINUOUS\", Blank Schedule Type Limits Name input -- will not be validated.\n   ** Warning ** GetHTSurfaceData: Surfaces with interface to Ground found but no \"Ground Temperatures\" were input.\n   **   ~~~   ** Found first in surface=SURFACE 25\n   **   ~~~   ** Defaults, constant throughout the year of (18.0) will be used.\n   ** Warning ** CheckUsedConstructions: There are 9 nominally unused constructions in input.\n   **   ~~~   ** For explicit details on each unused construction, use Output:Diagnostics,DisplayExtraWarnings;\n   ** Warning ** GetSimpleAirModelInputs: ZoneInfiltration:DesignFlowRate=\"ZONE CORE SPACE - STORY GROUND OFFICE WHOLEBUILDING - SM OFFICE INFILTRATION\", Design Flow Rate Calculation Method specifies Flow per Exterior Surface Area, but Exterior Wall Area = 0.  0 Infiltration will result.\n   ************* Beginning System Sizing Calculations\n   ************* Beginning Plant Sizing Calculations\n   ** Warning ** Output:Meter: invalid Name=\"DISTRICTCOOLING:FACILITY\" - not found.\n   ** Warning ** Output:Meter: invalid Name=\"DISTRICTHEATING:FACILITY\" - not found.\n   ** Warning ** Output:Meter:MeterFileOnly requested for \"Electricity:Facility\" (TimeStep), already on \"Output:Meter\". Will report to both eplusout.eso and eplusout.mtr\n   ************* Testing Individual Branch Integrity\n   ************* All Branches passed integrity testing\n   ************* Testing Individual Supply Air Path Integrity\n   ************* All Supply Air Paths passed integrity testing\n   ************* Testing Individual Return Air Path Integrity\n   ************* All Return Air Paths passed integrity testing\n   ************* No node connection errors were found.\n   ************* Beginning Simulation\n   ** Warning ** CalcDoe2DXCoil: Coil:Cooling:DX:SingleSpeed \"ZONE NORTH PERIMETER SPACE - STORY GROUND PSZ-AC 1SPD DX AC CLG COIL 26KBTU/HR 6.8EER\" - Full load outlet air dry-bulb temperature < 2C. This indicates the possibility of coil frost/freeze. Outlet temperature = -9.67E-003 C.\n   **   ~~~   **  ...Occurrence info = RUN PERIOD 1, 01/01 00:15 - 00:17\n   **   ~~~   ** ... Possible reasons for low outlet air dry-bulb temperatures are: This DX coil\n   **   ~~~   **    1) may have a low inlet air dry-bulb temperature. Inlet air temperature = 15.878 C.\n   **   ~~~   **    2) may have a low air flow rate per watt of cooling capacity. Check inputs.\n   **   ~~~   **    3) is used as part of a HX assisted cooling coil which uses a high sensible effectiveness. Check inputs.\n   ** Warning ** CalcDoe2DXCoil: Coil:Cooling:DX:SingleSpeed \"ZONE CORE SPACE - STORY GROUND PSZ-AC 1SPD DX AC CLG COIL 36KBTU/HR 6.8EER\" - Full load outlet air dry-bulb temperature < 2C. This indicates the possibility of coil frost/freeze. Outlet temperature = 1.93 C.\n   **   ~~~   **  ...Occurrence info = RUN PERIOD 1, 01/01 05:03 - 05:04\n   **   ~~~   ** ... Possible reasons for low outlet air dry-bulb temperatures are: This DX coil\n   **   ~~~   **    1) may have a low inlet air dry-bulb temperature. Inlet air temperature = 17.651 C.\n   **   ~~~   **    2) may have a low air flow rate per watt of cooling capacity. Check inputs.\n   **   ~~~   **    3) is used as part of a HX assisted cooling coil which uses a high sensible effectiveness. Check inputs.\n   ** Warning ** CalcDoe2DXCoil: Coil:Cooling:DX:SingleSpeed \"ZONE EAST PERIMETER SPACE - STORY GROUND PSZ-AC 1SPD DX AC CLG COIL 30KBTU/HR 6.8EER\" - Full load outlet air dry-bulb temperature < 2C. This indicates the possibility of coil frost/freeze. Outlet temperature = -1.64 C.\n   **   ~~~   **  ...Occurrence info = RUN PERIOD 1, 01/02 04:48 - 04:51\n   **   ~~~   ** ... Possible reasons for low outlet air dry-bulb temperatures are: This DX coil\n   **   ~~~   **    1) may have a low inlet air dry-bulb temperature. Inlet air temperature = 14.275 C.\n   **   ~~~   **    2) may have a low air flow rate per watt of cooling capacity. Check inputs.\n   **   ~~~   **    3) is used as part of a HX assisted cooling coil which uses a high sensible effectiveness. Check inputs.\n   ** Warning ** CalcDoe2DXCoil: Coil:Cooling:DX:SingleSpeed \"ZONE WEST PERIMETER SPACE - STORY GROUND PSZ-AC 1SPD DX AC CLG COIL 33KBTU/HR 6.8EER\" - Full load outlet air dry-bulb temperature < 2C. This indicates the possibility of coil frost/freeze. Outlet temperature = -1.56 C.\n   **   ~~~   **  ...Occurrence info = RUN PERIOD 1, 01/02 04:48 - 04:51\n   **   ~~~   ** ... Possible reasons for low outlet air dry-bulb temperatures are: This DX coil\n   **   ~~~   **    1) may have a low inlet air dry-bulb temperature. Inlet air temperature = 14.356 C.\n   **   ~~~   **    2) may have a low air flow rate per watt of cooling capacity. Check inputs.\n   **   ~~~   **    3) is used as part of a HX assisted cooling coil which uses a high sensible effectiveness. Check inputs.\n   ** Warning ** CalcDoe2DXCoil: Coil:Cooling:DX:SingleSpeed \"ZONE SOUTH PERIMETER SPACE - STORY GROUND PSZ-AC 1SPD DX AC CLG COIL 41KBTU/HR 6.8EER\" - Full load outlet air dry-bulb temperature < 2C. This indicates the possibility of coil frost/freeze. Outlet temperature = 1.67 C.\n   **   ~~~   **  ...Occurrence info = RUN PERIOD 1, 01/04 23:48 - 23:51\n   **   ~~~   ** ... Possible reasons for low outlet air dry-bulb temperatures are: This DX coil\n   **   ~~~   **    1) may have a low inlet air dry-bulb temperature. Inlet air temperature = 13.997 C.\n   **   ~~~   **    2) may have a low air flow rate per watt of cooling capacity. Check inputs.\n   **   ~~~   **    3) is used as part of a HX assisted cooling coil which uses a high sensible effectiveness. Check inputs.\n   ** Warning ** Plant Loop: OFFICE SHARED SERVICE WATER LOOP Demand Side is storing excess heat the majority of the time.\n   ** Warning ** Plant Loop: OFFICE SHARED SERVICE WATER LOOP Supply Side is storing excess heat the majority of the time.\n   ************* Simulation Error Summary *************\n   ************* There are 9 unused schedules in input.\n   ************* There are 9 unused week schedules in input.\n   ************* There are 32 unused day schedules in input.\n   ************* Use Output:Diagnostics,DisplayUnusedSchedules; to see them.\n   *************\n   ************* ===== Recurring Error Summary =====\n   ************* The following recurring error messages occurred.\n   *************\n   *************  ** Warning ** CalcDoe2DXCoil: Coil:Cooling:DX:SingleSpeed=\"ZONE NORTH PERIMETER SPACE - STORY GROUND PSZ-AC 1SPD DX AC CLG COIL 26KBTU/HR 6.8EER\" - Full load outlet temperature indicates a possibility of frost/freeze error continues. Outlet air temperature statistics follow:\n   *************  **   ~~~   **   This error occurred 96 total times;\n   *************  **   ~~~   **   during Warmup 0 times;\n   *************  **   ~~~   **   during Sizing 0 times.\n   *************  **   ~~~   **   Max=1.992248  Min=-1.683416\n   *************\n   *************  ** Warning ** CalcDoe2DXCoil: Coil:Cooling:DX:SingleSpeed=\"ZONE CORE SPACE - STORY GROUND PSZ-AC 1SPD DX AC CLG COIL 36KBTU/HR 6.8EER\" - Full load outlet temperature indicates a possibility of frost/freeze error continues. Outlet air temperature statistics follow:\n   *************  **   ~~~   **   This error occurred 13 total times;\n   *************  **   ~~~   **   during Warmup 0 times;\n   *************  **   ~~~   **   during Sizing 0 times.\n   *************  **   ~~~   **   Max=1.99655  Min=-0.648955\n   *************\n   *************  ** Warning ** CalcDoe2DXCoil: Coil:Cooling:DX:SingleSpeed=\"ZONE EAST PERIMETER SPACE - STORY GROUND PSZ-AC 1SPD DX AC CLG COIL 30KBTU/HR 6.8EER\" - Full load outlet temperature indicates a possibility of frost/freeze error continues. Outlet air temperature statistics follow:\n   *************  **   ~~~   **   This error occurred 88 total times;\n   *************  **   ~~~   **   during Warmup 0 times;\n   *************  **   ~~~   **   during Sizing 0 times.\n   *************  **   ~~~   **   Max=1.988944  Min=-1.64024\n   *************\n   *************  ** Warning ** CalcDoe2DXCoil: Coil:Cooling:DX:SingleSpeed=\"ZONE WEST PERIMETER SPACE - STORY GROUND PSZ-AC 1SPD DX AC CLG COIL 33KBTU/HR 6.8EER\" - Full load outlet temperature indicates a possibility of frost/freeze error continues. Outlet air temperature statistics follow:\n   *************  **   ~~~   **   This error occurred 69 total times;\n   *************  **   ~~~   **   during Warmup 0 times;\n   *************  **   ~~~   **   during Sizing 0 times.\n   *************  **   ~~~   **   Max=1.957094  Min=-1.558316\n   *************\n   *************  ** Warning ** CalcDoe2DXCoil: Coil:Cooling:DX:SingleSpeed=\"ZONE SOUTH PERIMETER SPACE - STORY GROUND PSZ-AC 1SPD DX AC CLG COIL 41KBTU/HR 6.8EER\" - Full load outlet temperature indicates a possibility of frost/freeze error continues. Outlet air temperature statistics follow:\n   *************  **   ~~~   **   This error occurred 40 total times;\n   *************  **   ~~~   **   during Warmup 0 times;\n   *************  **   ~~~   **   during Sizing 0 times.\n   *************  **   ~~~   **   Max=1.975027  Min=-1.677745\n   *************\n   *************\n   ************* ===== Final Error Summary =====\n   ************* The following error categories occurred.  Consider correcting or noting.\n   ************* Nominally Unused Constructions\n   ************* ..The nominally unused constructions warning is provided to alert you to potential conditions that can cause\n   ************* ..extra time during simulation. Each construction is calculated by the algorithm indicated in the HeatBalanceAlgorithm\n   ************* ..object. You may remove the constructions indicated (when you use the DisplayExtraWarnings option).\n   *************\n   ************* EnergyPlus Warmup Error Summary. During Warmup: 0 Warning; 0 Severe Errors.\n   ************* EnergyPlus Sizing Error Summary. During Sizing: 86 Warning; 0 Severe Errors.\n   ************* EnergyPlus Completed Successfully-- 397 Warning; 0 Severe Errors; Elapsed Time=00hr 00min 21.80sec\n",
   "file_paths" : [
      "C:/Sites/bricr/weather",
      "C:/Sites/OpenStudio-measures/NREL_integration_testing/weather"
   ],
   "hash" : "E57EBAE3",
   "measure_paths" : [
      "C:/Sites/bricr/measures",
      "C:/Sites/OpenStudio-measures/NREL working measures"
   ],
   "root_directory" : null,
   "run_directory" : null,
   "seed_file" : null,
   "started_at" : "20180302T025423Z",
   "steps" : [
      {
         "arguments" : {
            "__SKIP__" : false,
            "climate_zone" : "CEC3",
            "weather_file_name" : "CZ03RV2.epw"
         },
         "measure_dir_name" : "ChangeBuildingLocation",
         "result" : {
            "completed_at" : "20180302T025426Z",
            "measure_class_name" : "ChangeBuildingLocation",
            "measure_display_name" : "ChangeBuildingLocation",
            "measure_name" : "change_building_location",
            "measure_taxonomy" : "Whole Building.Space Types",
            "measure_type" : "ModelMeasure",
            "measure_uid" : "d4db4971-f5ba-11e3-a3ac-0800200c9a66",
            "measure_version_id" : "336497de-b542-44a7-a188-f70f5d85c622",
            "measure_version_modified" : "20180123T051147Z",
            "measure_xml_checksum" : "057E8D9D",
            "started_at" : "20180302T025425Z",
            "stderr" : "",
            "stdout" : "[openstudio.model.YearDescription] <1> 'UseWeatherFile' is not yet a supported option for YearDescription\n[openstudio.model.YearDescription] <1> 'UseWeatherFile' is not yet a supported option for YearDescription\n",
            "step_errors" : [],
            "step_files" : [],
            "step_final_condition" : "The final weather file is Climate Zone 3 and the model has 3 design day objects.",
            "step_info" : [
               "city is Climate Zone 3. State is CA",
               "mean dry bulb is 14.141666666666671",
               "Adding object Climate Zone 3 Ann Htg 99.6% Condns DB",
               "Adding object Climate Zone 3 Ann Clg .4% Condns WB=>MDB",
               "Adding object Climate Zone 3 Ann Clg .4% Condns DB=>MWB",
               "Setting Climate Zone to CEC3"
            ],
            "step_initial_condition" : "No weather file is set. The model has 0 design day objects",
            "step_result" : "Success",
            "step_values" : [
               {
                  "name" : "weather_file_name",
                  "value" : "CZ03RV2.epw"
               },
               {
                  "name" : "climate_zone",
                  "value" : "CEC3"
               }
            ],
            "step_warnings" : []
         }
      },
      {
         "arguments" : {
            "__SKIP__" : false,
            "bar_division_method" : "Single Space Type - Core and Perimeter",
            "bldg_type_a" : "SmallOffice",
            "bldg_type_a_num_units" : 1,
            "bldg_type_b" : "SmallOffice",
            "bldg_type_b_fract_bldg_area" : 0,
            "bldg_type_b_num_units" : 0,
            "bldg_type_c" : "SmallOffice",
            "bldg_type_c_fract_bldg_area" : 0,
            "bldg_type_c_num_units" : 0,
            "bldg_type_d" : "SmallOffice",
            "bldg_type_d_fract_bldg_area" : 0,
            "bldg_type_d_num_units" : 0,
            "building_rotation" : 0,
            "floor_height" : 0,
            "ns_to_ew_ratio" : 1.5,
            "num_stories_above_grade" : 1,
            "num_stories_below_grade" : 0,
            "party_wall_fraction" : 0,
            "story_multiplier" : "Basements Ground Mid Top",
            "template" : "CEC Pre-1978",
            "total_bldg_floor_area" : 5500,
            "wwr" : 0
         },
         "measure_dir_name" : "create_bar_from_building_type_ratios",
         "result" : {
            "completed_at" : "20180302T025427Z",
            "measure_class_name" : "CreateBarFromBuildingTypeRatios",
            "measure_display_name" : "Create Bar From Building Type Ratios",
            "measure_name" : "create_bar_from_building_type_ratios",
            "measure_taxonomy" : "Envelope.Form",
            "measure_type" : "ModelMeasure",
            "measure_uid" : "6e3a14f8-c3c7-4e03-bc51-bef8a52e1a05",
            "measure_version_id" : "d034dfca-cf03-4e11-b40d-ecd5194f3737",
            "measure_version_modified" : "20180123T051147Z",
            "measure_xml_checksum" : "2AF3A68E",
            "started_at" : "20180302T025427Z",
            "stderr" : "",
            "stdout" : "",
            "step_errors" : [],
            "step_files" : [],
            "step_final_condition" : "The building finished with 5 spaces.",
            "step_info" : [
               "0.0 value for floor height will be replaced with smart default for SmallOffice of 10.0.",
               "0.0 value for window to wall ratio will be replaced with smart default for SmallOffice of 0.15.",
               "Creating Space Types for SmallOffice.",
               "Intersecting surfaces, this will create additional geometry.",
               "Created Bar envlope with floor area of 5,500 (ft^2)",
               "Target party wall fraction is 0.0. Realized fraction is 0.0"
            ],
            "step_initial_condition" : "The building started with 0 spaces.",
            "step_result" : "Success",
            "step_values" : [
               {
                  "name" : "bldg_type_a",
                  "value" : "SmallOffice"
               },
               {
                  "name" : "bldg_type_a_num_units",
                  "value" : 1
               },
               {
                  "name" : "bldg_type_b",
                  "value" : "SmallOffice"
               },
               {
                  "name" : "bldg_type_b_fract_bldg_area",
                  "value" : 0
               },
               {
                  "name" : "bldg_type_b_num_units",
                  "value" : 0
               },
               {
                  "name" : "bldg_type_c",
                  "value" : "SmallOffice"
               },
               {
                  "name" : "bldg_type_c_fract_bldg_area",
                  "value" : 0
               },
               {
                  "name" : "bldg_type_c_num_units",
                  "value" : 0
               },
               {
                  "name" : "bldg_type_d",
                  "value" : "SmallOffice"
               },
               {
                  "name" : "bldg_type_d_fract_bldg_area",
                  "value" : 0
               },
               {
                  "name" : "bldg_type_d_num_units",
                  "value" : 0
               },
               {
                  "name" : "single_floor_area",
                  "value" : 0
               },
               {
                  "name" : "total_bldg_floor_area",
                  "value" : 5500
               },
               {
                  "name" : "floor_height",
                  "value" : 0
               },
               {
                  "name" : "num_stories_above_grade",
                  "value" : 1
               },
               {
                  "name" : "num_stories_below_grade",
                  "value" : 0
               },
               {
                  "name" : "building_rotation",
                  "value" : 0
               },
               {
                  "name" : "template",
                  "value" : "CEC Pre-1978"
               },
               {
                  "name" : "ns_to_ew_ratio",
                  "value" : 1.5
               },
               {
                  "name" : "wwr",
                  "value" : 0
               },
               {
                  "name" : "party_wall_fraction",
                  "value" : 0
               },
               {
                  "name" : "party_wall_stories_north",
                  "value" : 0
               },
               {
                  "name" : "party_wall_stories_south",
                  "value" : 0
               },
               {
                  "name" : "party_wall_stories_east",
                  "value" : 0
               },
               {
                  "name" : "party_wall_stories_west",
                  "value" : 0
               },
               {
                  "name" : "bottom_story_ground_exposed_floor",
                  "value" : true
               },
               {
                  "name" : "top_story_exterior_exposed_roof",
                  "value" : true
               },
               {
                  "name" : "story_multiplier",
                  "value" : "Basements Ground Mid Top"
               },
               {
                  "name" : "bar_division_method",
                  "value" : "Single Space Type - Core and Perimeter"
               },
               {
                  "name" : "make_mid_story_surfaces_adiabatic",
                  "value" : false
               },
               {
                  "name" : "party_wall_fraction_actual",
                  "value" : 0
               }
            ],
            "step_warnings" : [
               "Could not find color for CEC Pre-1978 Office WholeBuilding - Sm Office"
            ]
         }
      },
      {
         "arguments" : {
            "add_constructions" : true,
            "add_elevators" : false,
            "add_exhaust" : true,
            "add_exterior_lights" : false,
            "add_hvac" : true,
            "add_space_type_loads" : true,
            "add_swh" : true,
            "clg_src" : "Electricity",
            "exterior_lighting_zone" : "3 - All Other Areas",
            "htg_src" : "NaturalGas",
            "hvac_delivery_type" : "Forced Air",
            "kitchen_makeup" : "Adjacent",
            "onsite_parking_fraction" : 1,
            "remove_objects" : false,
            "system_type" : "PSZ-AC with gas coil heat",
            "template" : "CEC Pre-1978"
         },
         "measure_dir_name" : "create_typical_building_from_model",
         "result" : {
            "completed_at" : "20180302T025453Z",
            "measure_class_name" : "CreateTypicalBuildingFromModel",
            "measure_display_name" : "Create Typical Building from Model",
            "measure_name" : "create_typical_building_from_model",
            "measure_taxonomy" : "Whole Building.Space Types",
            "measure_type" : "ModelMeasure",
            "measure_uid" : "339a2e3a-273c-4494-bb50-bfe586a0647c",
            "measure_version_id" : "7cce7fa3-8bab-4460-a0ab-14e4f5dc8d80",
            "measure_version_modified" : "20180123T051147Z",
            "measure_xml_checksum" : "EE13F09F",
            "started_at" : "20180302T025427Z",
            "stderr" : "",
            "stdout" : "[openstudio.model.YearDescription] <1> 'UseWeatherFile' is not yet a supported option for YearDescription\n[openstudio.model.YearDescription] <1> 'UseWeatherFile' is not yet a supported option for YearDescription\n[openstudio.model.YearDescription] <1> 'UseWeatherFile' is not yet a supported option for YearDescription\n[openstudio.model.YearDescription] <1> 'UseWeatherFile' is not yet a supported option for YearDescription\n[openstudio.model.YearDescription] <1> 'UseWeatherFile' is not yet a supported option for YearDescription\n[openstudio.model.YearDescription] <1> 'UseWeatherFile' is not yet a supported option for YearDescription\n[openstudio.model.YearDescription] <1> 'UseWeatherFile' is not yet a supported option for YearDescription\n[openstudio.model.YearDescription] <1> 'UseWeatherFile' is not yet a supported option for YearDescription\n[openstudio.model.YearDescription] <1> 'UseWeatherFile' is not yet a supported option for YearDescription\n[openstudio.model.YearDescription] <1> 'UseWeatherFile' is not yet a supported option for YearDescription\n[openstudio.model.YearDescription] <1> 'UseWeatherFile' is not yet a supported option for YearDescription\n[openstudio.model.YearDescription] <1> 'UseWeatherFile' is not yet a supported option for YearDescription\n[openstudio.model.YearDescription] <1> 'UseWeatherFile' is not yet a supported option for YearDescription\n[openstudio.model.YearDescription] <1> 'UseWeatherFile' is not yet a supported option for YearDescription\n[openstudio.model.YearDescription] <1> 'UseWeatherFile' is not yet a supported option for YearDescription\n[openstudio.model.YearDescription] <1> 'UseWeatherFile' is not yet a supported option for YearDescription\n[openstudio.model.YearDescription] <1> 'UseWeatherFile' is not yet a supported option for YearDescription\n[openstudio.model.YearDescription] <1> 'UseWeatherFile' is not yet a supported option for YearDescription\n[openstudio.model.YearDescription] <1> 'UseWeatherFile' is not yet a supported option for YearDescription\n[openstudio.model.YearDescription] <1> 'UseWeatherFile' is not yet a supported option for YearDescription\n[openstudio.model.YearDescription] <1> 'UseWeatherFile' is not yet a supported option for YearDescription\n[openstudio.model.YearDescription] <1> 'UseWeatherFile' is not yet a supported option for YearDescription\n[openstudio.model.YearDescription] <1> 'UseWeatherFile' is not yet a supported option for YearDescription\n[openstudio.model.YearDescription] <1> 'UseWeatherFile' is not yet a supported option for YearDescription\n[openstudio.model.YearDescription] <1> 'UseWeatherFile' is not yet a supported option for YearDescription\n[openstudio.model.YearDescription] <1> 'UseWeatherFile' is not yet a supported option for YearDescription\n[openstudio.model.YearDescription] <1> 'UseWeatherFile' is not yet a supported option for YearDescription\n[openstudio.model.YearDescription] <1> 'UseWeatherFile' is not yet a supported option for YearDescription\n[openstudio.model.YearDescription] <1> 'UseWeatherFile' is not yet a supported option for YearDescription\n[openstudio.model.YearDescription] <1> 'UseWeatherFile' is not yet a supported option for YearDescription\n[openstudio.model.YearDescription] <1> 'UseWeatherFile' is not yet a supported option for YearDescription\n[openstudio.model.YearDescription] <1> 'UseWeatherFile' is not yet a supported option for YearDescription\n[openstudio.model.YearDescription] <1> 'UseWeatherFile' is not yet a supported option for YearDescription\n[openstudio.model.YearDescription] <1> 'UseWeatherFile' is not yet a supported option for YearDescription\n[openstudio.model.YearDescription] <1> 'UseWeatherFile' is not yet a supported option for YearDescription\n[openstudio.model.YearDescription] <1> 'UseWeatherFile' is not yet a supported option for YearDescription\n[openstudio.model.YearDescription] <1> 'UseWeatherFile' is not yet a supported option for YearDescription\n[openstudio.model.YearDescription] <1> 'UseWeatherFile' is not yet a supported option for YearDescription\n[openstudio.model.YearDescription] <1> 'UseWeatherFile' is not yet a supported option for YearDescription\n[openstudio.model.YearDescription] <1> 'UseWeatherFile' is not yet a supported option for YearDescription\n[openstudio.model.YearDescription] <1> 'UseWeatherFile' is not yet a supported option for YearDescription\n[openstudio.model.YearDescription] <1> 'UseWeatherFile' is not yet a supported option for YearDescription\n[openstudio.model.YearDescription] <1> 'UseWeatherFile' is not yet a supported option for YearDescription\n[openstudio.model.YearDescription] <1> 'UseWeatherFile' is not yet a supported option for YearDescription\n[openstudio.model.YearDescription] <1> 'UseWeatherFile' is not yet a supported option for YearDescription\n[openstudio.model.YearDescription] <1> 'UseWeatherFile' is not yet a supported option for YearDescription\n[openstudio.model.YearDescription] <1> 'UseWeatherFile' is not yet a supported option for YearDescription\n[openstudio.model.YearDescription] <1> 'UseWeatherFile' is not yet a supported option for YearDescription\n[openstudio.model.YearDescription] <1> 'UseWeatherFile' is not yet a supported option for YearDescription\n[openstudio.model.YearDescription] <1> 'UseWeatherFile' is not yet a supported option for YearDescription\n[openstudio.model.YearDescription] <1> 'UseWeatherFile' is not yet a supported option for YearDescription\n[openstudio.model.YearDescription] <1> 'UseWeatherFile' is not yet a supported option for YearDescription\n[openstudio.model.YearDescription] <1> 'UseWeatherFile' is not yet a supported option for YearDescription\n[openstudio.model.YearDescription] <1> 'UseWeatherFile' is not yet a supported option for YearDescription\n[openstudio.model.YearDescription] <1> 'UseWeatherFile' is not yet a supported option for YearDescription\n[openstudio.model.YearDescription] <1> 'UseWeatherFile' is not yet a supported option for YearDescription\n[openstudio.model.YearDescription] <1> 'UseWeatherFile' is not yet a supported option for YearDescription\n[openstudio.model.YearDescription] <1> 'UseWeatherFile' is not yet a supported option for YearDescription\n[openstudio.model.YearDescription] <1> 'UseWeatherFile' is not yet a supported option for YearDescription\n[openstudio.model.YearDescription] <1> 'UseWeatherFile' is not yet a supported option for YearDescription\n[openstudio.model.YearDescription] <1> 'UseWeatherFile' is not yet a supported option for YearDescription\n[openstudio.model.YearDescription] <1> 'UseWeatherFile' is not yet a supported option for YearDescription\n[openstudio.model.YearDescription] <1> 'UseWeatherFile' is not yet a supported option for YearDescription\n[openstudio.model.YearDescription] <1> 'UseWeatherFile' is not yet a supported option for YearDescription\n[openstudio.model.YearDescription] <1> 'UseWeatherFile' is not yet a supported option for YearDescription\n[openstudio.model.YearDescription] <1> 'UseWeatherFile' is not yet a supported option for YearDescription\n[openstudio.model.YearDescription] <1> 'UseWeatherFile' is not yet a supported option for YearDescription\n[openstudio.model.YearDescription] <1> 'UseWeatherFile' is not yet a supported option for YearDescription\n[openstudio.model.YearDescription] <1> 'UseWeatherFile' is not yet a supported option for YearDescription\n[openstudio.model.YearDescription] <1> 'UseWeatherFile' is not yet a supported option for YearDescription\n[openstudio.model.YearDescription] <1> 'UseWeatherFile' is not yet a supported option for YearDescription\n[openstudio.model.YearDescription] <1> 'UseWeatherFile' is not yet a supported option for YearDescription\n[openstudio.model.YearDescription] <1> 'UseWeatherFile' is not yet a supported option for YearDescription\n[openstudio.model.YearDescription] <1> 'UseWeatherFile' is not yet a supported option for YearDescription\n[openstudio.model.YearDescription] <1> 'UseWeatherFile' is not yet a supported option for YearDescription\n[openstudio.model.YearDescription] <1> 'UseWeatherFile' is not yet a supported option for YearDescription\n[openstudio.model.YearDescription] <1> 'UseWeatherFile' is not yet a supported option for YearDescription\n[openstudio.model.YearDescription] <1> 'UseWeatherFile' is not yet a supported option for YearDescription\n[openstudio.model.YearDescription] <1> 'UseWeatherFile' is not yet a supported option for YearDescription\n[openstudio.model.YearDescription] <1> 'UseWeatherFile' is not yet a supported option for YearDescription\n[openstudio.model.YearDescription] <1> 'UseWeatherFile' is not yet a supported option for YearDescription\n[openstudio.model.YearDescription] <1> 'UseWeatherFile' is not yet a supported option for YearDescription\n[openstudio.model.YearDescription] <1> 'UseWeatherFile' is not yet a supported option for YearDescription\n[openstudio.model.YearDescription] <1> 'UseWeatherFile' is not yet a supported option for YearDescription\n[openstudio.model.YearDescription] <1> 'UseWeatherFile' is not yet a supported option for YearDescription\n[openstudio.model.YearDescription] <1> 'UseWeatherFile' is not yet a supported option for YearDescription\n[openstudio.model.YearDescription] <1> 'UseWeatherFile' is not yet a supported option for YearDescription\n[openstudio.model.YearDescription] <1> 'UseWeatherFile' is not yet a supported option for YearDescription\n[openstudio.model.YearDescription] <1> 'UseWeatherFile' is not yet a supported option for YearDescription\n[openstudio.model.YearDescription] <1> 'UseWeatherFile' is not yet a supported option for YearDescription\n[openstudio.model.YearDescription] <1> 'UseWeatherFile' is not yet a supported option for YearDescription\n[openstudio.model.YearDescription] <1> 'UseWeatherFile' is not yet a supported option for YearDescription\n[openstudio.model.YearDescription] <1> 'UseWeatherFile' is not yet a supported option for YearDescription\n[openstudio.model.YearDescription] <1> 'UseWeatherFile' is not yet a supported option for YearDescription\n[openstudio.model.YearDescription] <1> 'UseWeatherFile' is not yet a supported option for YearDescription\n[openstudio.model.YearDescription] <1> 'UseWeatherFile' is not yet a supported option for YearDescription\n[openstudio.model.YearDescription] <1> 'UseWeatherFile' is not yet a supported option for YearDescription\n[openstudio.model.YearDescription] <1> 'UseWeatherFile' is not yet a supported option for YearDescription\n[openstudio.model.YearDescription] <1> 'UseWeatherFile' is not yet a supported option for YearDescription\n[openstudio.model.YearDescription] <1> 'UseWeatherFile' is not yet a supported option for YearDescription\n[openstudio.model.YearDescription] <1> 'UseWeatherFile' is not yet a supported option for YearDescription\n[openstudio.model.YearDescription] <1> 'UseWeatherFile' is not yet a supported option for YearDescription\n[openstudio.model.YearDescription] <1> 'UseWeatherFile' is not yet a supported option for YearDescription\n[openstudio.model.YearDescription] <1> 'UseWeatherFile' is not yet a supported option for YearDescription\n[openstudio.model.YearDescription] <1> 'UseWeatherFile' is not yet a supported option for YearDescription\n[openstudio.model.YearDescription] <1> 'UseWeatherFile' is not yet a supported option for YearDescription\n[openstudio.model.YearDescription] <1> 'UseWeatherFile' is not yet a supported option for YearDescription\n[openstudio.model.YearDescription] <1> 'UseWeatherFile' is not yet a supported option for YearDescription\n[openstudio.model.YearDescription] <1> 'UseWeatherFile' is not yet a supported option for YearDescription\n[openstudio.model.YearDescription] <1> 'UseWeatherFile' is not yet a supported option for YearDescription\n[openstudio.model.YearDescription] <1> 'UseWeatherFile' is not yet a supported option for YearDescription\n[openstudio.model.YearDescription] <1> 'UseWeatherFile' is not yet a supported option for YearDescription\n[openstudio.model.YearDescription] <1> 'UseWeatherFile' is not yet a supported option for YearDescription\n[openstudio.model.YearDescription] <1> 'UseWeatherFile' is not yet a supported option for YearDescription\n[openstudio.model.YearDescription] <1> 'UseWeatherFile' is not yet a supported option for YearDescription\n[openstudio.model.YearDescription] <1> 'UseWeatherFile' is not yet a supported option for YearDescription\n[openstudio.model.YearDescription] <1> 'UseWeatherFile' is not yet a supported option for YearDescription\n[openstudio.model.YearDescription] <1> 'UseWeatherFile' is not yet a supported option for YearDescription\n[openstudio.model.YearDescription] <1> 'UseWeatherFile' is not yet a supported option for YearDescription\n[openstudio.model.YearDescription] <1> 'UseWeatherFile' is not yet a supported option for YearDescription\n[openstudio.model.YearDescription] <1> 'UseWeatherFile' is not yet a supported option for YearDescription\n[openstudio.model.YearDescription] <1> 'UseWeatherFile' is not yet a supported option for YearDescription\n[openstudio.model.YearDescription] <1> 'UseWeatherFile' is not yet a supported option for YearDescription\n[openstudio.model.YearDescription] <1> 'UseWeatherFile' is not yet a supported option for YearDescription\n[openstudio.model.YearDescription] <1> 'UseWeatherFile' is not yet a supported option for YearDescription\n[openstudio.model.YearDescription] <1> 'UseWeatherFile' is not yet a supported option for YearDescription\n[openstudio.model.YearDescription] <1> 'UseWeatherFile' is not yet a supported option for YearDescription\n[openstudio.model.YearDescription] <1> 'UseWeatherFile' is not yet a supported option for YearDescription\n[openstudio.model.YearDescription] <1> 'UseWeatherFile' is not yet a supported option for YearDescription\n[openstudio.model.YearDescription] <1> 'UseWeatherFile' is not yet a supported option for YearDescription\n[openstudio.model.YearDescription] <1> 'UseWeatherFile' is not yet a supported option for YearDescription\n[openstudio.model.YearDescription] <1> 'UseWeatherFile' is not yet a supported option for YearDescription\n[openstudio.model.YearDescription] <1> 'UseWeatherFile' is not yet a supported option for YearDescription\n[openstudio.model.YearDescription] <1> 'UseWeatherFile' is not yet a supported option for YearDescription\n[openstudio.model.YearDescription] <1> 'UseWeatherFile' is not yet a supported option for YearDescription\n[openstudio.model.YearDescription] <1> 'UseWeatherFile' is not yet a supported option for YearDescription\n[openstudio.model.YearDescription] <1> 'UseWeatherFile' is not yet a supported option for YearDescription\n[openstudio.model.YearDescription] <1> 'UseWeatherFile' is not yet a supported option for YearDescription\n[openstudio.model.YearDescription] <1> 'UseWeatherFile' is not yet a supported option for YearDescription\n[openstudio.model.YearDescription] <1> 'UseWeatherFile' is not yet a supported option for YearDescription\n[openstudio.model.YearDescription] <1> 'UseWeatherFile' is not yet a supported option for YearDescription\n[openstudio.model.YearDescription] <1> 'UseWeatherFile' is not yet a supported option for YearDescription\n[openstudio.model.YearDescription] <1> 'UseWeatherFile' is not yet a supported option for YearDescription\n[openstudio.model.YearDescription] <1> 'UseWeatherFile' is not yet a supported option for YearDescription\n[openstudio.model.YearDescription] <1> 'UseWeatherFile' is not yet a supported option for YearDescription\n[openstudio.model.YearDescription] <1> 'UseWeatherFile' is not yet a supported option for YearDescription\n[openstudio.model.YearDescription] <1> 'UseWeatherFile' is not yet a supported option for YearDescription\n[openstudio.model.YearDescription] <1> 'UseWeatherFile' is not yet a supported option for YearDescription\n[openstudio.model.YearDescription] <1> 'UseWeatherFile' is not yet a supported option for YearDescription\n[openstudio.model.YearDescription] <1> 'UseWeatherFile' is not yet a supported option for YearDescription\n[openstudio.model.YearDescription] <1> 'UseWeatherFile' is not yet a supported option for YearDescription\n[openstudio.model.YearDescription] <1> 'UseWeatherFile' is not yet a supported option for YearDescription\n[openstudio.model.YearDescription] <1> 'UseWeatherFile' is not yet a supported option for YearDescription\n[openstudio.model.YearDescription] <1> 'UseWeatherFile' is not yet a supported option for YearDescription\n[openstudio.model.YearDescription] <1> 'UseWeatherFile' is not yet a supported option for YearDescription\n[openstudio.model.YearDescription] <1> 'UseWeatherFile' is not yet a supported option for YearDescription\n[openstudio.model.YearDescription] <1> 'UseWeatherFile' is not yet a supported option for YearDescription\n[openstudio.model.YearDescription] <1> 'UseWeatherFile' is not yet a supported option for YearDescription\n[openstudio.model.YearDescription] <1> 'UseWeatherFile' is not yet a supported option for YearDescription\n[openstudio.model.YearDescription] <1> 'UseWeatherFile' is not yet a supported option for YearDescription\n[openstudio.model.YearDescription] <1> 'UseWeatherFile' is not yet a supported option for YearDescription\n[openstudio.model.YearDescription] <1> 'UseWeatherFile' is not yet a supported option for YearDescription\n[openstudio.model.YearDescription] <1> 'UseWeatherFile' is not yet a supported option for YearDescription\n[openstudio.model.YearDescription] <1> 'UseWeatherFile' is not yet a supported option for YearDescription\n[openstudio.model.YearDescription] <1> 'UseWeatherFile' is not yet a supported option for YearDescription\n[openstudio.model.YearDescription] <1> 'UseWeatherFile' is not yet a supported option for YearDescription\n[openstudio.model.YearDescription] <1> 'UseWeatherFile' is not yet a supported option for YearDescription\n[openstudio.model.YearDescription] <1> 'UseWeatherFile' is not yet a supported option for YearDescription\n[openstudio.model.YearDescription] <1> 'UseWeatherFile' is not yet a supported option for YearDescription\n[openstudio.model.YearDescription] <1> 'UseWeatherFile' is not yet a supported option for YearDescription\n[openstudio.model.YearDescription] <1> 'UseWeatherFile' is not yet a supported option for YearDescription\n[openstudio.model.YearDescription] <1> 'UseWeatherFile' is not yet a supported option for YearDescription\n[openstudio.model.YearDescription] <1> 'UseWeatherFile' is not yet a supported option for YearDescription\n[openstudio.model.YearDescription] <1> 'UseWeatherFile' is not yet a supported option for YearDescription\n[openstudio.model.YearDescription] <1> 'UseWeatherFile' is not yet a supported option for YearDescription\n[openstudio.model.YearDescription] <1> 'UseWeatherFile' is not yet a supported option for YearDescription\n[openstudio.model.YearDescription] <1> 'UseWeatherFile' is not yet a supported option for YearDescription\n[openstudio.model.YearDescription] <1> 'UseWeatherFile' is not yet a supported option for YearDescription\n[openstudio.model.YearDescription] <1> 'UseWeatherFile' is not yet a supported option for YearDescription\n[openstudio.model.YearDescription] <1> 'UseWeatherFile' is not yet a supported option for YearDescription\n[openstudio.model.YearDescription] <1> 'UseWeatherFile' is not yet a supported option for YearDescription\n[openstudio.model.YearDescription] <1> 'UseWeatherFile' is not yet a supported option for YearDescription\n[openstudio.model.YearDescription] <1> 'UseWeatherFile' is not yet a supported option for YearDescription\n[openstudio.model.YearDescription] <1> 'UseWeatherFile' is not yet a supported option for YearDescription\n[openstudio.model.YearDescription] <1> 'UseWeatherFile' is not yet a supported option for YearDescription\n[openstudio.model.YearDescription] <1> 'UseWeatherFile' is not yet a supported option for YearDescription\n[openstudio.model.YearDescription] <1> 'UseWeatherFile' is not yet a supported option for YearDescription\n[openstudio.model.YearDescription] <1> 'UseWeatherFile' is not yet a supported option for YearDescription\n[openstudio.model.YearDescription] <1> 'UseWeatherFile' is not yet a supported option for YearDescription\n[openstudio.model.YearDescription] <1> 'UseWeatherFile' is not yet a supported option for YearDescription\n[openstudio.model.YearDescription] <1> 'UseWeatherFile' is not yet a supported option for YearDescription\n[openstudio.model.YearDescription] <1> 'UseWeatherFile' is not yet a supported option for YearDescription\n[openstudio.model.YearDescription] <1> 'UseWeatherFile' is not yet a supported option for YearDescription\n[openstudio.model.YearDescription] <1> 'UseWeatherFile' is not yet a supported option for YearDescription\n[openstudio.model.YearDescription] <1> 'UseWeatherFile' is not yet a supported option for YearDescription\n[openstudio.model.YearDescription] <1> 'UseWeatherFile' is not yet a supported option for YearDescription\n[openstudio.model.YearDescription] <1> 'UseWeatherFile' is not yet a supported option for YearDescription\n[openstudio.model.YearDescription] <1> 'UseWeatherFile' is not yet a supported option for YearDescription\n[openstudio.model.YearDescription] <1> 'UseWeatherFile' is not yet a supported option for YearDescription\n[openstudio.model.YearDescription] <1> 'UseWeatherFile' is not yet a supported option for YearDescription\n[openstudio.model.YearDescription] <1> 'UseWeatherFile' is not yet a supported option for YearDescription\n[openstudio.model.YearDescription] <1> 'UseWeatherFile' is not yet a supported option for YearDescription\n[openstudio.model.YearDescription] <1> 'UseWeatherFile' is not yet a supported option for YearDescription\n[openstudio.model.YearDescription] <1> 'UseWeatherFile' is not yet a supported option for YearDescription\n[openstudio.model.YearDescription] <1> 'UseWeatherFile' is not yet a supported option for YearDescription\n[openstudio.model.YearDescription] <1> 'UseWeatherFile' is not yet a supported option for YearDescription\n[openstudio.model.YearDescription] <1> 'UseWeatherFile' is not yet a supported option for YearDescription\n[openstudio.model.YearDescription] <1> 'UseWeatherFile' is not yet a supported option for YearDescription\n[openstudio.model.YearDescription] <1> 'UseWeatherFile' is not yet a supported option for YearDescription\n[openstudio.model.YearDescription] <1> 'UseWeatherFile' is not yet a supported option for YearDescription\n[openstudio.model.YearDescription] <1> 'UseWeatherFile' is not yet a supported option for YearDescription\n[openstudio.model.YearDescription] <1> 'UseWeatherFile' is not yet a supported option for YearDescription\n[openstudio.model.YearDescription] <1> 'UseWeatherFile' is not yet a supported option for YearDescription\n[openstudio.model.YearDescription] <1> 'UseWeatherFile' is not yet a supported option for YearDescription\n[openstudio.model.YearDescription] <1> 'UseWeatherFile' is not yet a supported option for YearDescription\n[openstudio.model.YearDescription] <1> 'UseWeatherFile' is not yet a supported option for YearDescription\n[openstudio.model.YearDescription] <1> 'UseWeatherFile' is not yet a supported option for YearDescription\n[openstudio.model.YearDescription] <1> 'UseWeatherFile' is not yet a supported option for YearDescription\n[openstudio.model.YearDescription] <1> 'UseWeatherFile' is not yet a supported option for YearDescription\n[openstudio.model.YearDescription] <1> 'UseWeatherFile' is not yet a supported option for YearDescription\n[openstudio.model.YearDescription] <1> 'UseWeatherFile' is not yet a supported option for YearDescription\n[openstudio.model.YearDescription] <1> 'UseWeatherFile' is not yet a supported option for YearDescription\n[openstudio.model.YearDescription] <1> 'UseWeatherFile' is not yet a supported option for YearDescription\n[openstudio.model.YearDescription] <1> 'UseWeatherFile' is not yet a supported option for YearDescription\n[openstudio.model.YearDescription] <1> 'UseWeatherFile' is not yet a supported option for YearDescription\n[openstudio.model.YearDescription] <1> 'UseWeatherFile' is not yet a supported option for YearDescription\n[openstudio.model.YearDescription] <1> 'UseWeatherFile' is not yet a supported option for YearDescription\n[openstudio.model.YearDescription] <1> 'UseWeatherFile' is not yet a supported option for YearDescription\n[openstudio.model.YearDescription] <1> 'UseWeatherFile' is not yet a supported option for YearDescription\n[openstudio.model.YearDescription] <1> 'UseWeatherFile' is not yet a supported option for YearDescription\n[openstudio.model.YearDescription] <1> 'UseWeatherFile' is not yet a supported option for YearDescription\n[openstudio.model.YearDescription] <1> 'UseWeatherFile' is not yet a supported option for YearDescription\n[openstudio.model.YearDescription] <1> 'UseWeatherFile' is not yet a supported option for YearDescription\n[openstudio.model.YearDescription] <1> 'UseWeatherFile' is not yet a supported option for YearDescription\n[openstudio.model.YearDescription] <1> 'UseWeatherFile' is not yet a supported option for YearDescription\n[openstudio.model.YearDescription] <1> 'UseWeatherFile' is not yet a supported option for YearDescription\n[openstudio.model.YearDescription] <1> 'UseWeatherFile' is not yet a supported option for YearDescription\n[openstudio.model.YearDescription] <1> 'UseWeatherFile' is not yet a supported option for YearDescription\n[openstudio.model.YearDescription] <1> 'UseWeatherFile' is not yet a supported option for YearDescription\n[openstudio.model.YearDescription] <1> 'UseWeatherFile' is not yet a supported option for YearDescription\n[openstudio.model.YearDescription] <1> 'UseWeatherFile' is not yet a supported option for YearDescription\n[openstudio.model.YearDescription] <1> 'UseWeatherFile' is not yet a supported option for YearDescription\n[openstudio.model.YearDescription] <1> 'UseWeatherFile' is not yet a supported option for YearDescription\n[openstudio.model.YearDescription] <1> 'UseWeatherFile' is not yet a supported option for YearDescription\n[openstudio.model.YearDescription] <1> 'UseWeatherFile' is not yet a supported option for YearDescription\n[openstudio.model.YearDescription] <1> 'UseWeatherFile' is not yet a supported option for YearDescription\n[openstudio.model.YearDescription] <1> 'UseWeatherFile' is not yet a supported option for YearDescription\n[openstudio.model.YearDescription] <1> 'UseWeatherFile' is not yet a supported option for YearDescription\n[openstudio.model.YearDescription] <1> 'UseWeatherFile' is not yet a supported option for YearDescription\n[openstudio.model.YearDescription] <1> 'UseWeatherFile' is not yet a supported option for YearDescription\n[openstudio.model.YearDescription] <1> 'UseWeatherFile' is not yet a supported option for YearDescription\n[openstudio.model.YearDescription] <1> 'UseWeatherFile' is not yet a supported option for YearDescription\n[openstudio.model.YearDescription] <1> 'UseWeatherFile' is not yet a supported option for YearDescription\n[openstudio.model.YearDescription] <1> 'UseWeatherFile' is not yet a supported option for YearDescription\n[openstudio.model.YearDescription] <1> 'UseWeatherFile' is not yet a supported option for YearDescription\n[openstudio.model.YearDescription] <1> 'UseWeatherFile' is not yet a supported option for YearDescription\n[openstudio.model.YearDescription] <1> 'UseWeatherFile' is not yet a supported option for YearDescription\n[openstudio.model.YearDescription] <1> 'UseWeatherFile' is not yet a supported option for YearDescription\n[openstudio.model.YearDescription] <1> 'UseWeatherFile' is not yet a supported option for YearDescription\n[openstudio.model.YearDescription] <1> 'UseWeatherFile' is not yet a supported option for YearDescription\n[openstudio.model.YearDescription] <1> 'UseWeatherFile' is not yet a supported option for YearDescription\n[openstudio.model.YearDescription] <1> 'UseWeatherFile' is not yet a supported option for YearDescription\n[openstudio.model.YearDescription] <1> 'UseWeatherFile' is not yet a supported option for YearDescription\n[openstudio.model.YearDescription] <1> 'UseWeatherFile' is not yet a supported option for YearDescription\n[openstudio.model.YearDescription] <1> 'UseWeatherFile' is not yet a supported option for YearDescription\n[openstudio.model.YearDescription] <1> 'UseWeatherFile' is not yet a supported option for YearDescription\n[openstudio.model.YearDescription] <1> 'UseWeatherFile' is not yet a supported option for YearDescription\n[openstudio.model.YearDescription] <1> 'UseWeatherFile' is not yet a supported option for YearDescription\n[openstudio.model.YearDescription] <1> 'UseWeatherFile' is not yet a supported option for YearDescription\n[openstudio.model.YearDescription] <1> 'UseWeatherFile' is not yet a supported option for YearDescription\n[openstudio.model.YearDescription] <1> 'UseWeatherFile' is not yet a supported option for YearDescription\n[openstudio.model.YearDescription] <1> 'UseWeatherFile' is not yet a supported option for YearDescription\n[openstudio.model.YearDescription] <1> 'UseWeatherFile' is not yet a supported option for YearDescription\n[openstudio.model.YearDescription] <1> 'UseWeatherFile' is not yet a supported option for YearDescription\n[openstudio.model.YearDescription] <1> 'UseWeatherFile' is not yet a supported option for YearDescription\n[openstudio.model.YearDescription] <1> 'UseWeatherFile' is not yet a supported option for YearDescription\n[openstudio.model.YearDescription] <1> 'UseWeatherFile' is not yet a supported option for YearDescription\n[openstudio.model.YearDescription] <1> 'UseWeatherFile' is not yet a supported option for YearDescription\n[openstudio.model.YearDescription] <1> 'UseWeatherFile' is not yet a supported option for YearDescription\n[openstudio.model.YearDescription] <1> 'UseWeatherFile' is not yet a supported option for YearDescription\n[openstudio.model.YearDescription] <1> 'UseWeatherFile' is not yet a supported option for YearDescription\n[openstudio.model.YearDescription] <1> 'UseWeatherFile' is not yet a supported option for YearDescription\n[openstudio.model.YearDescription] <1> 'UseWeatherFile' is not yet a supported option for YearDescription\n[openstudio.model.YearDescription] <1> 'UseWeatherFile' is not yet a supported option for YearDescription\n[openstudio.model.YearDescription] <1> 'UseWeatherFile' is not yet a supported option for YearDescription\n[openstudio.model.YearDescription] <1> 'UseWeatherFile' is not yet a supported option for YearDescription\n[openstudio.model.YearDescription] <1> 'UseWeatherFile' is not yet a supported option for YearDescription\n[openstudio.model.YearDescription] <1> 'UseWeatherFile' is not yet a supported option for YearDescription\n[openstudio.model.YearDescription] <1> 'UseWeatherFile' is not yet a supported option for YearDescription\n[openstudio.model.YearDescription] <1> 'UseWeatherFile' is not yet a supported option for YearDescription\n[openstudio.model.YearDescription] <1> 'UseWeatherFile' is not yet a supported option for YearDescription\n[openstudio.model.YearDescription] <1> 'UseWeatherFile' is not yet a supported option for YearDescription\n[openstudio.model.YearDescription] <1> 'UseWeatherFile' is not yet a supported option for YearDescription\n[openstudio.model.YearDescription] <1> 'UseWeatherFile' is not yet a supported option for YearDescription\n[openstudio.model.YearDescription] <1> 'UseWeatherFile' is not yet a supported option for YearDescription\n[openstudio.model.YearDescription] <1> 'UseWeatherFile' is not yet a supported option for YearDescription\n[openstudio.model.YearDescription] <1> 'UseWeatherFile' is not yet a supported option for YearDescription\n[openstudio.model.YearDescription] <1> 'UseWeatherFile' is not yet a supported option for YearDescription\n[openstudio.model.YearDescription] <1> 'UseWeatherFile' is not yet a supported option for YearDescription\n[openstudio.model.YearDescription] <1> 'UseWeatherFile' is not yet a supported option for YearDescription\n[openstudio.model.YearDescription] <1> 'UseWeatherFile' is not yet a supported option for YearDescription\n[openstudio.model.YearDescription] <1> 'UseWeatherFile' is not yet a supported option for YearDescription\n[openstudio.model.YearDescription] <1> 'UseWeatherFile' is not yet a supported option for YearDescription\n[openstudio.model.YearDescription] <1> 'UseWeatherFile' is not yet a supported option for YearDescription\n[openstudio.model.YearDescription] <1> 'UseWeatherFile' is not yet a supported option for YearDescription\n[openstudio.model.YearDescription] <1> 'UseWeatherFile' is not yet a supported option for YearDescription\n[openstudio.model.YearDescription] <1> 'UseWeatherFile' is not yet a supported option for YearDescription\n[openstudio.model.YearDescription] <1> 'UseWeatherFile' is not yet a supported option for YearDescription\n[openstudio.model.YearDescription] <1> 'UseWeatherFile' is not yet a supported option for YearDescription\n[openstudio.model.YearDescription] <1> 'UseWeatherFile' is not yet a supported option for YearDescription\n[openstudio.model.YearDescription] <1> 'UseWeatherFile' is not yet a supported option for YearDescription\n[openstudio.model.YearDescription] <1> 'UseWeatherFile' is not yet a supported option for YearDescription\n[openstudio.model.YearDescription] <1> 'UseWeatherFile' is not yet a supported option for YearDescription\n[openstudio.model.YearDescription] <1> 'UseWeatherFile' is not yet a supported option for YearDescription\n[openstudio.model.YearDescription] <1> 'UseWeatherFile' is not yet a supported option for YearDescription\n[openstudio.model.YearDescription] <1> 'UseWeatherFile' is not yet a supported option for YearDescription\n[openstudio.model.YearDescription] <1> 'UseWeatherFile' is not yet a supported option for YearDescription\n[openstudio.model.YearDescription] <1> 'UseWeatherFile' is not yet a supported option for YearDescription\n[openstudio.model.YearDescription] <1> 'UseWeatherFile' is not yet a supported option for YearDescription\n[openstudio.model.YearDescription] <1> 'UseWeatherFile' is not yet a supported option for YearDescription\n[openstudio.model.YearDescription] <1> 'UseWeatherFile' is not yet a supported option for YearDescription\n[openstudio.model.YearDescription] <1> 'UseWeatherFile' is not yet a supported option for YearDescription\n[openstudio.model.YearDescription] <1> 'UseWeatherFile' is not yet a supported option for YearDescription\n[openstudio.model.YearDescription] <1> 'UseWeatherFile' is not yet a supported option for YearDescription\n[openstudio.model.YearDescription] <1> 'UseWeatherFile' is not yet a supported option for YearDescription\n[openstudio.model.YearDescription] <1> 'UseWeatherFile' is not yet a supported option for YearDescription\n[openstudio.model.YearDescription] <1> 'UseWeatherFile' is not yet a supported option for YearDescription\n[openstudio.model.YearDescription] <1> 'UseWeatherFile' is not yet a supported option for YearDescription\n[openstudio.model.YearDescription] <1> 'UseWeatherFile' is not yet a supported option for YearDescription\n[openstudio.model.YearDescription] <1> 'UseWeatherFile' is not yet a supported option for YearDescription\n[openstudio.model.YearDescription] <1> 'UseWeatherFile' is not yet a supported option for YearDescription\n[openstudio.model.YearDescription] <1> 'UseWeatherFile' is not yet a supported option for YearDescription\n[openstudio.model.YearDescription] <1> 'UseWeatherFile' is not yet a supported option for YearDescription\n[openstudio.model.YearDescription] <1> 'UseWeatherFile' is not yet a supported option for YearDescription\n[openstudio.model.YearDescription] <1> 'UseWeatherFile' is not yet a supported option for YearDescription\n[openstudio.model.YearDescription] <1> 'UseWeatherFile' is not yet a supported option for YearDescription\n[openstudio.model.YearDescription] <1> 'UseWeatherFile' is not yet a supported option for YearDescription\n[openstudio.model.YearDescription] <1> 'UseWeatherFile' is not yet a supported option for YearDescription\n[openstudio.model.YearDescription] <1> 'UseWeatherFile' is not yet a supported option for YearDescription\n[openstudio.model.YearDescription] <1> 'UseWeatherFile' is not yet a supported option for YearDescription\n[openstudio.model.YearDescription] <1> 'UseWeatherFile' is not yet a supported option for YearDescription\n[openstudio.model.YearDescription] <1> 'UseWeatherFile' is not yet a supported option for YearDescription\n[openstudio.model.YearDescription] <1> 'UseWeatherFile' is not yet a supported option for YearDescription\n[openstudio.model.YearDescription] <1> 'UseWeatherFile' is not yet a supported option for YearDescription\n[openstudio.model.YearDescription] <1> 'UseWeatherFile' is not yet a supported option for YearDescription\n[openstudio.model.YearDescription] <1> 'UseWeatherFile' is not yet a supported option for YearDescription\n[openstudio.model.YearDescription] <1> 'UseWeatherFile' is not yet a supported option for YearDescription\n[openstudio.model.YearDescription] <1> 'UseWeatherFile' is not yet a supported option for YearDescription\n[openstudio.model.YearDescription] <1> 'UseWeatherFile' is not yet a supported option for YearDescription\n[openstudio.model.YearDescription] <1> 'UseWeatherFile' is not yet a supported option for YearDescription\n[openstudio.model.YearDescription] <1> 'UseWeatherFile' is not yet a supported option for YearDescription\n[openstudio.model.YearDescription] <1> 'UseWeatherFile' is not yet a supported option for YearDescription\n[openstudio.model.YearDescription] <1> 'UseWeatherFile' is not yet a supported option for YearDescription\n[openstudio.model.YearDescription] <1> 'UseWeatherFile' is not yet a supported option for YearDescription\n[openstudio.model.YearDescription] <1> 'UseWeatherFile' is not yet a supported option for YearDescription\n[openstudio.model.YearDescription] <1> 'UseWeatherFile' is not yet a supported option for YearDescription\n[openstudio.model.YearDescription] <1> 'UseWeatherFile' is not yet a supported option for YearDescription\n[openstudio.model.YearDescription] <1> 'UseWeatherFile' is not yet a supported option for YearDescription\n[openstudio.model.YearDescription] <1> 'UseWeatherFile' is not yet a supported option for YearDescription\n[openstudio.model.YearDescription] <1> 'UseWeatherFile' is not yet a supported option for YearDescription\n[openstudio.model.YearDescription] <1> 'UseWeatherFile' is not yet a supported option for YearDescription\n[openstudio.model.YearDescription] <1> 'UseWeatherFile' is not yet a supported option for YearDescription\n[openstudio.model.YearDescription] <1> 'UseWeatherFile' is not yet a supported option for YearDescription\n[openstudio.model.YearDescription] <1> 'UseWeatherFile' is not yet a supported option for YearDescription\n[openstudio.model.YearDescription] <1> 'UseWeatherFile' is not yet a supported option for YearDescription\n[openstudio.model.YearDescription] <1> 'UseWeatherFile' is not yet a supported option for YearDescription\n[openstudio.model.YearDescription] <1> 'UseWeatherFile' is not yet a supported option for YearDescription\n[openstudio.model.YearDescription] <1> 'UseWeatherFile' is not yet a supported option for YearDescription\n[openstudio.model.YearDescription] <1> 'UseWeatherFile' is not yet a supported option for YearDescription\n[openstudio.model.YearDescription] <1> 'UseWeatherFile' is not yet a supported option for YearDescription\n[openstudio.model.YearDescription] <1> 'UseWeatherFile' is not yet a supported option for YearDescription\n[openstudio.model.YearDescription] <1> 'UseWeatherFile' is not yet a supported option for YearDescription\n[openstudio.model.YearDescription] <1> 'UseWeatherFile' is not yet a supported option for YearDescription\n[openstudio.model.YearDescription] <1> 'UseWeatherFile' is not yet a supported option for YearDescription\n[openstudio.model.YearDescription] <1> 'UseWeatherFile' is not yet a supported option for YearDescription\n[openstudio.model.YearDescription] <1> 'UseWeatherFile' is not yet a supported option for YearDescription\n[openstudio.model.YearDescription] <1> 'UseWeatherFile' is not yet a supported option for YearDescription\n[openstudio.model.YearDescription] <1> 'UseWeatherFile' is not yet a supported option for YearDescription\n[openstudio.model.YearDescription] <1> 'UseWeatherFile' is not yet a supported option for YearDescription\n[openstudio.model.YearDescription] <1> 'UseWeatherFile' is not yet a supported option for YearDescription\n[openstudio.model.YearDescription] <1> 'UseWeatherFile' is not yet a supported option for YearDescription\n[openstudio.model.YearDescription] <1> 'UseWeatherFile' is not yet a supported option for YearDescription\n[openstudio.model.YearDescription] <1> 'UseWeatherFile' is not yet a supported option for YearDescription\n[openstudio.model.YearDescription] <1> 'UseWeatherFile' is not yet a supported option for YearDescription\n[openstudio.model.YearDescription] <1> 'UseWeatherFile' is not yet a supported option for YearDescription\n[openstudio.model.YearDescription] <1> 'UseWeatherFile' is not yet a supported option for YearDescription\n[openstudio.model.YearDescription] <1> 'UseWeatherFile' is not yet a supported option for YearDescription\n[openstudio.model.YearDescription] <1> 'UseWeatherFile' is not yet a supported option for YearDescription\n[openstudio.model.YearDescription] <1> 'UseWeatherFile' is not yet a supported option for YearDescription\n[openstudio.model.YearDescription] <1> 'UseWeatherFile' is not yet a supported option for YearDescription\n[openstudio.model.YearDescription] <1> 'UseWeatherFile' is not yet a supported option for YearDescription\n[openstudio.model.YearDescription] <1> 'UseWeatherFile' is not yet a supported option for YearDescription\n[openstudio.model.YearDescription] <1> 'UseWeatherFile' is not yet a supported option for YearDescription\n[openstudio.model.YearDescription] <1> 'UseWeatherFile' is not yet a supported option for YearDescription\n[openstudio.model.YearDescription] <1> 'UseWeatherFile' is not yet a supported option for YearDescription\n[openstudio.model.YearDescription] <1> 'UseWeatherFile' is not yet a supported option for YearDescription\n[openstudio.model.YearDescription] <1> 'UseWeatherFile' is not yet a supported option for YearDescription\n[openstudio.model.YearDescription] <1> 'UseWeatherFile' is not yet a supported option for YearDescription\n[openstudio.model.YearDescription] <1> 'UseWeatherFile' is not yet a supported option for YearDescription\n[openstudio.model.YearDescription] <1> 'UseWeatherFile' is not yet a supported option for YearDescription\n[openstudio.model.YearDescription] <1> 'UseWeatherFile' is not yet a supported option for YearDescription\n[openstudio.model.YearDescription] <1> 'UseWeatherFile' is not yet a supported option for YearDescription\n[openstudio.model.YearDescription] <1> 'UseWeatherFile' is not yet a supported option for YearDescription\n[openstudio.model.YearDescription] <1> 'UseWeatherFile' is not yet a supported option for YearDescription\n[openstudio.model.YearDescription] <1> 'UseWeatherFile' is not yet a supported option for YearDescription\n[openstudio.model.YearDescription] <1> 'UseWeatherFile' is not yet a supported option for YearDescription\n[openstudio.model.YearDescription] <1> 'UseWeatherFile' is not yet a supported option for YearDescription\n[openstudio.model.YearDescription] <1> 'UseWeatherFile' is not yet a supported option for YearDescription\n[openstudio.model.YearDescription] <1> 'UseWeatherFile' is not yet a supported option for YearDescription\n[openstudio.model.YearDescription] <1> 'UseWeatherFile' is not yet a supported option for YearDesc
[...]
                  "name" : "end_use_electricity_refrigeration",
                  "units" : "kWh",
                  "value" : 0
               },
               {
                  "name" : "end_use_electricity_generators",
                  "units" : "kWh",
                  "value" : 0
               },
               {
                  "name" : "end_use_natural_gas_heating",
                  "units" : "therms",
                  "value" : 548.60760000000005
               },
               {
                  "name" : "end_use_natural_gas_cooling",
                  "units" : "therms",
                  "value" : 0
               },
               {
                  "name" : "end_use_natural_gas_interior_lighting",
                  "units" : "therms",
                  "value" : 0
               },
               {
                  "name" : "end_use_natural_gas_exterior_lighting",
                  "units" : "therms",
                  "value" : 0
               },
               {
                  "name" : "end_use_natural_gas_interior_equipment",
                  "units" : "therms",
                  "value" : 0
               },
               {
                  "name" : "end_use_natural_gas_exterior_equipment",
                  "units" : "therms",
                  "value" : 0
               },
               {
                  "name" : "end_use_natural_gas_fans",
                  "units" : "therms",
                  "value" : 0
               },
               {
                  "name" : "end_use_natural_gas_pumps",
                  "units" : "therms",
                  "value" : 0
               },
               {
                  "name" : "end_use_natural_gas_heat_rejection",
                  "units" : "therms",
                  "value" : 0
               },
               {
                  "name" : "end_use_natural_gas_humidification",
                  "units" : "therms",
                  "value" : 0
               },
               {
                  "name" : "end_use_natural_gas_heat_recovery",
                  "units" : "therms",
                  "value" : 0
               },
               {
                  "name" : "end_use_natural_gas_water_systems",
                  "units" : "therms",
                  "value" : 110.7264
               },
               {
                  "name" : "end_use_natural_gas_refrigeration",
                  "units" : "therms",
                  "value" : 0
               },
               {
                  "name" : "end_use_natural_gas_generators",
                  "units" : "therms",
                  "value" : 0
               },
               {
                  "name" : "electricity_heating_ip",
                  "units" : "kWh",
                  "value" : 320.67583579166666
               },
               {
                  "name" : "electricity_cooling_ip",
                  "units" : "kWh",
                  "value" : 18072.558333333331
               },
               {
                  "name" : "electricity_interior_lighting_ip",
                  "units" : "kWh",
                  "value" : 17015.686111111114
               },
               {
                  "name" : "electricity_exterior_lighting_ip",
                  "units" : "kWh",
                  "value" : 0
               },
               {
                  "name" : "electricity_interior_equipment_ip",
                  "units" : "kWh",
                  "value" : 22054.780555555557
               },
               {
                  "name" : "electricity_exterior_equipment_ip",
                  "units" : "kWh",
                  "value" : 0
               },
               {
                  "name" : "electricity_fans_ip",
                  "units" : "kWh",
                  "value" : 15985.619444444445
               },
               {
                  "name" : "electricity_pumps_ip",
                  "units" : "kWh",
                  "value" : 1.2831138055555558
               },
               {
                  "name" : "electricity_heat_rejection_ip",
                  "units" : "kWh",
                  "value" : 0
               },
               {
                  "name" : "electricity_humidification_ip",
                  "units" : "kWh",
                  "value" : 0
               },
               {
                  "name" : "electricity_heat_recovery_ip",
                  "units" : "kWh",
                  "value" : 0
               },
               {
                  "name" : "electricity_water_systems_ip",
                  "units" : "kWh",
                  "value" : 0
               },
               {
                  "name" : "electricity_refrigeration_ip",
                  "units" : "kWh",
                  "value" : 0
               },
               {
                  "name" : "electricity_generators_ip",
                  "units" : "kWh",
                  "value" : 0
               },
               {
                  "name" : "electricity_ip",
                  "units" : "kWh",
                  "value" : 73450.603394041667
               },
               {
                  "name" : "natural_gas_heating_ip",
                  "units" : "MBtu",
                  "value" : 54.854404016888267
               },
               {
                  "name" : "natural_gas_cooling_ip",
                  "units" : "MBtu",
                  "value" : 0
               },
               {
                  "name" : "natural_gas_interior_lighting_ip",
                  "units" : "MBtu",
                  "value" : 0
               },
               {
                  "name" : "natural_gas_exterior_lighting_ip",
                  "units" : "MBtu",
                  "value" : 0
               },
               {
                  "name" : "natural_gas_interior_equipment_ip",
                  "units" : "MBtu",
                  "value" : 0
               },
               {
                  "name" : "natural_gas_exterior_equipment_ip",
                  "units" : "MBtu",
                  "value" : 0
               },
               {
                  "name" : "natural_gas_fans_ip",
                  "units" : "MBtu",
                  "value" : 0
               },
               {
                  "name" : "natural_gas_pumps_ip",
                  "units" : "MBtu",
                  "value" : 0
               },
               {
                  "name" : "natural_gas_heat_rejection_ip",
                  "units" : "MBtu",
                  "value" : 0
               },
               {
                  "name" : "natural_gas_humidification_ip",
                  "units" : "MBtu",
                  "value" : 0
               },
               {
                  "name" : "natural_gas_heat_recovery_ip",
                  "units" : "MBtu",
                  "value" : 0
               },
               {
                  "name" : "natural_gas_water_systems_ip",
                  "units" : "MBtu",
                  "value" : 11.071435669488814
               },
               {
                  "name" : "natural_gas_refrigeration_ip",
                  "units" : "MBtu",
                  "value" : 0
               },
               {
                  "name" : "natural_gas_generators_ip",
                  "units" : "MBtu",
                  "value" : 0
               },
               {
                  "name" : "natural_gas_ip",
                  "units" : "MBtu",
                  "value" : 65.925839686377074
               },
               {
                  "name" : "additional_fuel_heating_ip",
                  "units" : "MBtu",
                  "value" : 0
               },
               {
                  "name" : "additional_fuel_cooling_ip",
                  "units" : "MBtu",
                  "value" : 0
               },
               {
                  "name" : "additional_fuel_interior_lighting_ip",
                  "units" : "MBtu",
                  "value" : 0
               },
               {
                  "name" : "additional_fuel_exterior_lighting_ip",
                  "units" : "MBtu",
                  "value" : 0
               },
               {
                  "name" : "additional_fuel_interior_equipment_ip",
                  "units" : "MBtu",
                  "value" : 0
               },
               {
                  "name" : "additional_fuel_exterior_equipment_ip",
                  "units" : "MBtu",
                  "value" : 0
               },
               {
                  "name" : "additional_fuel_fans_ip",
                  "units" : "MBtu",
                  "value" : 0
               },
               {
                  "name" : "additional_fuel_pumps_ip",
                  "units" : "MBtu",
                  "value" : 0
               },
               {
                  "name" : "additional_fuel_heat_rejection_ip",
                  "units" : "MBtu",
                  "value" : 0
               },
               {
                  "name" : "additional_fuel_humidification_ip",
                  "units" : "MBtu",
                  "value" : 0
               },
               {
                  "name" : "additional_fuel_heat_recovery_ip",
                  "units" : "MBtu",
                  "value" : 0
               },
               {
                  "name" : "additional_fuel_water_systems_ip",
                  "units" : "MBtu",
                  "value" : 0
               },
               {
                  "name" : "additional_fuel_refrigeration_ip",
                  "units" : "MBtu",
                  "value" : 0
               },
               {
                  "name" : "additional_fuel_generators_ip",
                  "units" : "MBtu",
                  "value" : 0
               },
               {
                  "name" : "additional_fuel_ip",
                  "units" : "MBtu",
                  "value" : 0
               },
               {
                  "name" : "district_cooling_heating_ip",
                  "units" : "MBtu",
                  "value" : 0
               },
               {
                  "name" : "district_cooling_cooling_ip",
                  "units" : "MBtu",
                  "value" : 0
               },
               {
                  "name" : "district_cooling_interior_lighting_ip",
                  "units" : "MBtu",
                  "value" : 0
               },
               {
                  "name" : "district_cooling_exterior_lighting_ip",
                  "units" : "MBtu",
                  "value" : 0
               },
               {
                  "name" : "district_cooling_interior_equipment_ip",
                  "units" : "MBtu",
                  "value" : 0
               },
               {
                  "name" : "district_cooling_exterior_equipment_ip",
                  "units" : "MBtu",
                  "value" : 0
               },
               {
                  "name" : "district_cooling_fans_ip",
                  "units" : "MBtu",
                  "value" : 0
               },
               {
                  "name" : "district_cooling_pumps_ip",
                  "units" : "MBtu",
                  "value" : 0
               },
               {
                  "name" : "district_cooling_heat_rejection_ip",
                  "units" : "MBtu",
                  "value" : 0
               },
               {
                  "name" : "district_cooling_humidification_ip",
                  "units" : "MBtu",
                  "value" : 0
               },
               {
                  "name" : "district_cooling_heat_recovery_ip",
                  "units" : "MBtu",
                  "value" : 0
               },
               {
                  "name" : "district_cooling_water_systems_ip",
                  "units" : "MBtu",
                  "value" : 0
               },
               {
                  "name" : "district_cooling_refrigeration_ip",
                  "units" : "MBtu",
                  "value" : 0
               },
               {
                  "name" : "district_cooling_generators_ip",
                  "units" : "MBtu",
                  "value" : 0
               },
               {
                  "name" : "district_cooling_ip",
                  "units" : "MBtu",
                  "value" : 0
               },
               {
                  "name" : "district_heating_heating_ip",
                  "units" : "MBtu",
                  "value" : 0
               },
               {
                  "name" : "district_heating_cooling_ip",
                  "units" : "MBtu",
                  "value" : 0
               },
               {
                  "name" : "district_heating_interior_lighting_ip",
                  "units" : "MBtu",
                  "value" : 0
               },
               {
                  "name" : "district_heating_exterior_lighting_ip",
                  "units" : "MBtu",
                  "value" : 0
               },
               {
                  "name" : "district_heating_interior_equipment_ip",
                  "units" : "MBtu",
                  "value" : 0
               },
               {
                  "name" : "district_heating_exterior_equipment_ip",
                  "units" : "MBtu",
                  "value" : 0
               },
               {
                  "name" : "district_heating_fans_ip",
                  "units" : "MBtu",
                  "value" : 0
               },
               {
                  "name" : "district_heating_pumps_ip",
                  "units" : "MBtu",
                  "value" : 0
               },
               {
                  "name" : "district_heating_heat_rejection_ip",
                  "units" : "MBtu",
                  "value" : 0
               },
               {
                  "name" : "district_heating_humidification_ip",
                  "units" : "MBtu",
                  "value" : 0
               },
               {
                  "name" : "district_heating_heat_recovery_ip",
                  "units" : "MBtu",
                  "value" : 0
               },
               {
                  "name" : "district_heating_water_systems_ip",
                  "units" : "MBtu",
                  "value" : 0
               },
               {
                  "name" : "district_heating_refrigeration_ip",
                  "units" : "MBtu",
                  "value" : 0
               },
               {
                  "name" : "district_heating_generators_ip",
                  "units" : "MBtu",
                  "value" : 0
               },
               {
                  "name" : "district_heating_ip",
                  "units" : "MBtu",
                  "value" : 0
               },
               {
                  "name" : "water_heating_ip",
                  "units" : "MBtu",
                  "value" : 0
               },
               {
                  "name" : "water_cooling_ip",
                  "units" : "MBtu",
                  "value" : 0
               },
               {
                  "name" : "water_interior_lighting_ip",
                  "units" : "MBtu",
                  "value" : 0
               },
               {
                  "name" : "water_exterior_lighting_ip",
                  "units" : "MBtu",
                  "value" : 0
               },
               {
                  "name" : "water_interior_equipment_ip",
                  "units" : "MBtu",
                  "value" : 0
               },
               {
                  "name" : "water_exterior_equipment_ip",
                  "units" : "MBtu",
                  "value" : 0
               },
               {
                  "name" : "water_fans_ip",
                  "units" : "MBtu",
                  "value" : 0
               },
               {
                  "name" : "water_pumps_ip",
                  "units" : "MBtu",
                  "value" : 0
               },
               {
                  "name" : "water_heat_rejection_ip",
                  "units" : "MBtu",
                  "value" : 0
               },
               {
                  "name" : "water_humidification_ip",
                  "units" : "MBtu",
                  "value" : 0
               },
               {
                  "name" : "water_heat_recovery_ip",
                  "units" : "MBtu",
                  "value" : 0
               },
               {
                  "name" : "water_water_systems_ip",
                  "units" : "MBtu",
                  "value" : 0
               },
               {
                  "name" : "water_refrigeration_ip",
                  "units" : "MBtu",
                  "value" : 0
               },
               {
                  "name" : "water_generators_ip",
                  "units" : "MBtu",
                  "value" : 0
               },
               {
                  "name" : "water_ip",
                  "units" : "MBtu",
                  "value" : 0
               },
               {
                  "name" : "metal_framed_walls_w_1_r_8_60",
                  "units" : "ft^2",
                  "value" : 2573.5028009828634
               },
               {
                  "name" : "metal_roof_r_1_r_14_20",
                  "units" : "ft^2",
                  "value" : 5499.9999999999836
               },
               {
                  "name" : "u_1_23_shgc_0_82_simple_glazing_window_01",
                  "units" : "ft^2",
                  "value" : 454.14755311462062
               },
               {
                  "name" : "gross_window_wall_ratio",
                  "units" : "%",
                  "value" : 15
               },
               {
                  "name" : "gross_window_wall_ratio_conditioned",
                  "units" : "%",
                  "value" : 15
               },
               {
                  "name" : "skylight_roof_ratio",
                  "units" : "%",
                  "value" : 0
               },
               {
                  "name" : "space_type_office_whole_building_sm_office_cec_pre_1978",
                  "units" : "ft^2",
                  "value" : 5499.9999999999836
               },
               {
                  "name" : "exterior_lighting_total_power",
                  "units" : "W",
                  "value" : 0
               },
               {
                  "name" : "exterior_lighting_total_consumption",
                  "units" : "kWh",
                  "value" : 92772.222222222219
               },
               {
                  "name" : "office_whole_building_sm_office_cec_pre_1978_swh",
                  "units" : "gal/min",
                  "value" : 0.049981824790984876
               },
               {
                  "name" : "inflation_approach",
                  "value" : "Constant Dollar"
               },
               {
                  "name" : "analysis_length",
                  "units" : "yrs",
                  "value" : 25
               },
               {
                  "name" : "annual_peak_electric_demand",
                  "units" : "kW",
                  "value" : 29.448310000000003
               },
               {
                  "name" : "first_year_capital_cost",
                  "units" : "$",
                  "value" : 0
               },
               {
                  "name" : "annual_utility_cost",
                  "units" : "$",
                  "value" : 22280.599999999999
               },
               {
                  "name" : "total_lifecycle_cost",
                  "units" : "$",
                  "value" : 388432.69
               }
            ],
            "step_warnings" : []
         }
      }
   ],
   "updated_at" : "20180302T025541Z",
   "weather_file" : null
}
