Program Version,EnergyPlus, Version 8.7.0-78a111df4a, YMD=2018.03.01 18:55
! This file shows details about the branches, nodes, and other
! elements of the flow connections.
! This file is intended for use in "debugging" potential problems
! that may also be detected by the program, but may be more easily
! identified by "eye".
! This file is also intended to support software which draws a
! schematic diagram of the HVAC system.
! ===============================================================
! #Nodes,<Number of Unique Nodes>
 #Nodes,258
! <Node>,<NodeNumber>,<Node Name>,<Node Fluid Type>,<# Times Node Referenced After Definition>
 Node,1,NODE 225,Air,4
 Node,2,NODE 129,Air,4
 Node,3,NODE 117,Air,4
 Node,4,NODE 165,Air,4
 Node,5,NODE 93,Air,4
 Node,6,NODE 69,Air,4
 Node,7,NODE 201,Air,4
 Node,8,NODE 153,Air,4
 Node,9,NODE 249,Air,4
 Node,10,NODE 45,Air,4
 Node,11,NODE 141,Air,4
 Node,12,NODE 57,Air,4
 Node,13,NODE 177,Air,4
 Node,14,NODE 105,Air,4
 Node,15,NODE 81,Air,4
 Node,16,NODE 237,Air,4
 Node,17,NODE 213,Air,4
 Node,18,NODE 189,Air,4
 Node,19,NODE 222,Air,12
 Node,20,NODE 223,Air,3
 Node,21,NODE 126,Air,12
 Node,22,NODE 127,Air,3
 Node,23,NODE 114,Air,12
 Node,24,NODE 115,Air,3
 Node,25,NODE 162,Air,12
 Node,26,NODE 163,Air,3
 Node,27,NODE 90,Air,12
 Node,28,NODE 91,Air,3
 Node,29,NODE 66,Air,12
 Node,30,NODE 67,Air,3
 Node,31,NODE 198,Air,12
 Node,32,NODE 199,Air,3
 Node,33,NODE 150,Air,12
 Node,34,NODE 151,Air,3
 Node,35,NODE 246,Air,12
 Node,36,NODE 247,Air,3
 Node,37,NODE 42,Air,12
 Node,38,NODE 43,Air,3
 Node,39,NODE 138,Air,12
 Node,40,NODE 139,Air,3
 Node,41,NODE 54,Air,12
 Node,42,NODE 55,Air,3
 Node,43,NODE 174,Air,12
 Node,44,NODE 175,Air,3
 Node,45,NODE 102,Air,12
 Node,46,NODE 103,Air,3
 Node,47,NODE 78,Air,12
 Node,48,NODE 79,Air,3
 Node,49,NODE 234,Air,12
 Node,50,NODE 235,Air,3
 Node,51,NODE 210,Air,12
 Node,52,NODE 211,Air,3
 Node,53,NODE 186,Air,12
 Node,54,NODE 187,Air,3
 Node,55,NODE 221,Air,3
 Node,56,NODE 231,Air,6
 Node,57,NODE 230,Air,6
 Node,58,NODE 229,Air,5
 Node,59,NODE 228,Air,9
 Node,60,NODE 125,Air,3
 Node,61,NODE 135,Air,6
 Node,62,NODE 134,Air,6
 Node,63,NODE 133,Air,5
 Node,64,NODE 132,Air,9
 Node,65,NODE 113,Air,3
 Node,66,NODE 123,Air,6
 Node,67,NODE 122,Air,6
 Node,68,NODE 121,Air,5
 Node,69,NODE 120,Air,9
 Node,70,NODE 161,Air,3
 Node,71,NODE 171,Air,6
 Node,72,NODE 170,Air,6
 Node,73,NODE 169,Air,5
 Node,74,NODE 168,Air,9
 Node,75,NODE 89,Air,3
 Node,76,NODE 99,Air,6
 Node,77,NODE 98,Air,6
 Node,78,NODE 97,Air,5
 Node,79,NODE 96,Air,9
 Node,80,NODE 65,Air,3
 Node,81,NODE 75,Air,6
 Node,82,NODE 74,Air,6
 Node,83,NODE 73,Air,5
 Node,84,NODE 72,Air,9
 Node,85,NODE 197,Air,3
 Node,86,NODE 207,Air,6
 Node,87,NODE 206,Air,6
 Node,88,NODE 205,Air,5
 Node,89,NODE 204,Air,9
 Node,90,NODE 149,Air,3
 Node,91,NODE 159,Air,6
 Node,92,NODE 158,Air,6
 Node,93,NODE 157,Air,5
 Node,94,NODE 156,Air,9
 Node,95,NODE 245,Air,3
 Node,96,NODE 255,Air,6
 Node,97,NODE 254,Air,6
 Node,98,NODE 253,Air,5
 Node,99,NODE 252,Air,9
 Node,100,NODE 41,Air,3
 Node,101,NODE 51,Air,6
 Node,102,NODE 50,Air,6
 Node,103,NODE 49,Air,5
 Node,104,NODE 48,Air,9
 Node,105,NODE 137,Air,3
 Node,106,NODE 147,Air,6
 Node,107,NODE 146,Air,6
 Node,108,NODE 145,Air,5
 Node,109,NODE 144,Air,9
 Node,110,NODE 53,Air,3
 Node,111,NODE 63,Air,6
 Node,112,NODE 62,Air,6
 Node,113,NODE 61,Air,5
 Node,114,NODE 60,Air,9
 Node,115,NODE 173,Air,3
 Node,116,NODE 183,Air,6
 Node,117,NODE 182,Air,6
 Node,118,NODE 181,Air,5
 Node,119,NODE 180,Air,9
 Node,120,NODE 101,Air,3
 Node,121,NODE 111,Air,6
 Node,122,NODE 110,Air,6
 Node,123,NODE 109,Air,5
 Node,124,NODE 108,Air,9
 Node,125,NODE 77,Air,3
 Node,126,NODE 87,Air,6
 Node,127,NODE 86,Air,6
 Node,128,NODE 85,Air,5
 Node,129,NODE 84,Air,9
 Node,130,NODE 233,Air,3
 Node,131,NODE 243,Air,6
 Node,132,NODE 242,Air,6
 Node,133,NODE 241,Air,5
 Node,134,NODE 240,Air,9
 Node,135,NODE 209,Air,3
 Node,136,NODE 219,Air,6
 Node,137,NODE 218,Air,6
 Node,138,NODE 217,Air,5
 Node,139,NODE 216,Air,9
 Node,140,NODE 185,Air,3
 Node,141,NODE 195,Air,6
 Node,142,NODE 194,Air,6
 Node,143,NODE 193,Air,5
 Node,144,NODE 192,Air,9
 Node,145,NODE 19,Water,2
 Node,146,NODE 25,Water,1
 Node,147,NODE 21,Water,1
 Node,148,NODE 26,Water,1
 Node,149,NODE 27,Water,1
 Node,150,NODE 28,Water,1
 Node,151,NODE 30,Water,1
 Node,152,NODE 20,Water,4
 Node,153,NODE 22,Water,2
 Node,154,NODE 31,Water,1
 Node,155,NODE 24,Water,1
 Node,156,NODE 29,Water,1
 Node,157,NODE 33,Water,1
 Node,158,NODE 34,Water,1
 Node,159,NODE 35,Water,1
 Node,160,NODE 36,Water,1
 Node,161,NODE 37,Water,1
 Node,162,NODE 38,Water,1
 Node,163,NODE 39,Water,1
 Node,164,NODE 40,Water,1
 Node,165,RETAIL SHARED SERVICE WATER LOOP DEMAND BYPASS PIPE INLET NODE,Water,1
 Node,166,RETAIL SHARED SERVICE WATER LOOP DEMAND BYPASS PIPE OUTLET NODE,Water,1
 Node,167,NODE 32,Water,1
 Node,168,NODE 23,Water,2
 Node,169,NODE 226,Air,2
 Node,170,NODE 130,Air,2
 Node,171,NODE 118,Air,2
 Node,172,NODE 166,Air,2
 Node,173,NODE 94,Air,2
 Node,174,NODE 70,Air,2
 Node,175,NODE 202,Air,2
 Node,176,NODE 154,Air,2
 Node,177,NODE 250,Air,2
 Node,178,NODE 46,Air,2
 Node,179,NODE 142,Air,2
 Node,180,NODE 58,Air,2
 Node,181,NODE 178,Air,2
 Node,182,NODE 106,Air,2
 Node,183,NODE 82,Air,2
 Node,184,NODE 238,Air,2
 Node,185,NODE 214,Air,2
 Node,186,NODE 190,Air,2
 Node,187,NODE 13,Air,1
 Node,188,NODE 16,Air,1
 Node,189,NODE 14,Air,1
 Node,190,NODE 17,Air,1
 Node,191,NODE 15,Air,1
 Node,192,NODE 18,Air,1
 Node,193,NODE 7,Air,1
 Node,194,NODE 8,Air,1
 Node,195,NODE 9,Air,1
 Node,196,NODE 10,Air,1
 Node,197,NODE 11,Air,1
 Node,198,NODE 12,Air,1
 Node,199,NODE 4,Air,1
 Node,200,NODE 1,Air,1
 Node,201,NODE 5,Air,1
 Node,202,NODE 2,Air,1
 Node,203,NODE 6,Air,1
 Node,204,NODE 3,Air,1
 Node,205,NODE 232,Air,1
 Node,206,NODE 136,Air,1
 Node,207,NODE 124,Air,1
 Node,208,NODE 172,Air,1
 Node,209,NODE 100,Air,1
 Node,210,NODE 76,Air,1
 Node,211,NODE 208,Air,1
 Node,212,NODE 160,Air,1
 Node,213,NODE 256,Air,1
 Node,214,NODE 52,Air,1
 Node,215,NODE 148,Air,1
 Node,216,NODE 64,Air,1
 Node,217,NODE 184,Air,1
 Node,218,NODE 112,Air,1
 Node,219,NODE 88,Air,1
 Node,220,NODE 244,Air,1
 Node,221,NODE 220,Air,1
 Node,222,NODE 196,Air,1
 Node,223,NODE 224,Air,2
 Node,224,NODE 128,Air,2
 Node,225,NODE 116,Air,2
 Node,226,NODE 164,Air,2
 Node,227,NODE 92,Air,2
 Node,228,NODE 68,Air,2
 Node,229,NODE 200,Air,2
 Node,230,NODE 152,Air,2
 Node,231,NODE 248,Air,2
 Node,232,NODE 44,Air,2
 Node,233,NODE 140,Air,2
 Node,234,NODE 56,Air,2
 Node,235,NODE 176,Air,2
 Node,236,NODE 104,Air,2
 Node,237,NODE 80,Air,2
 Node,238,NODE 236,Air,2
 Node,239,NODE 212,Air,2
 Node,240,NODE 188,Air,2
 Node,241,NODE 227,Air,1
 Node,242,NODE 131,Air,1
 Node,243,NODE 119,Air,1
 Node,244,NODE 167,Air,1
 Node,245,NODE 95,Air,1
 Node,246,NODE 71,Air,1
 Node,247,NODE 203,Air,1
 Node,248,NODE 155,Air,1
 Node,249,NODE 251,Air,1
 Node,250,NODE 47,Air,1
 Node,251,NODE 143,Air,1
 Node,252,NODE 59,Air,1
 Node,253,NODE 179,Air,1
 Node,254,NODE 107,Air,1
 Node,255,NODE 83,Air,1
 Node,256,NODE 239,Air,1
 Node,257,NODE 215,Air,1
 Node,258,NODE 191,Air,1
! ===============================================================
! <#Branch Lists>,<Number of Branch Lists>
 #Branch Lists,20
! <Branch List>,<Branch List Count>,<Branch List Name>,<Loop Name>,<Loop Type>,<Number of Branches>
! <Branch>,<Branch Count>,<Branch Name>,<Loop Name>,<Loop Type>,<Branch Inlet Node Name>,<Branch Outlet Node Name>
 Branch List,1,ZONE RETAIL BACK_SPACE A  - STORY GROUND PSZ-AC SUPPLY BRANCHES,ZONE RETAIL BACK_SPACE A  - STORY GROUND PSZ-AC,Air,1
   Branch,1,ZONE RETAIL BACK_SPACE A  - STORY GROUND PSZ-AC MAIN BRANCH,ZONE RETAIL BACK_SPACE A  - STORY GROUND PSZ-AC,Air,NODE 221,NODE 222
 Branch List,2,ZONE RETAIL BACK_SPACE A END_B - STORY GROUND PSZ-AC SUPPLY BRANCHES,ZONE RETAIL BACK_SPACE A END_B - STORY GROUND PSZ-AC,Air,1
   Branch,1,ZONE RETAIL BACK_SPACE A END_B - STORY GROUND PSZ-AC MAIN BRANCH,ZONE RETAIL BACK_SPACE A END_B - STORY GROUND PSZ-AC,Air,NODE 125,NODE 126
 Branch List,3,ZONE RETAIL BACK_SPACE B  - STORY GROUND PSZ-AC SUPPLY BRANCHES,ZONE RETAIL BACK_SPACE B  - STORY GROUND PSZ-AC,Air,1
   Branch,1,ZONE RETAIL BACK_SPACE B  - STORY GROUND PSZ-AC MAIN BRANCH,ZONE RETAIL BACK_SPACE B  - STORY GROUND PSZ-AC,Air,NODE 113,NODE 114
 Branch List,4,ZONE RETAIL BACK_SPACE B END_B - STORY GROUND PSZ-AC SUPPLY BRANCHES,ZONE RETAIL BACK_SPACE B END_B - STORY GROUND PSZ-AC,Air,1
   Branch,1,ZONE RETAIL BACK_SPACE B END_B - STORY GROUND PSZ-AC MAIN BRANCH,ZONE RETAIL BACK_SPACE B END_B - STORY GROUND PSZ-AC,Air,NODE 161,NODE 162
 Branch List,5,ZONE RETAIL BACK_SPACE C  - STORY GROUND PSZ-AC SUPPLY BRANCHES,ZONE RETAIL BACK_SPACE C  - STORY GROUND PSZ-AC,Air,1
   Branch,1,ZONE RETAIL BACK_SPACE C  - STORY GROUND PSZ-AC MAIN BRANCH,ZONE RETAIL BACK_SPACE C  - STORY GROUND PSZ-AC,Air,NODE 89,NODE 90
 Branch List,6,ZONE RETAIL BACK_SPACE C END_B - STORY GROUND PSZ-AC SUPPLY BRANCHES,ZONE RETAIL BACK_SPACE C END_B - STORY GROUND PSZ-AC,Air,1
   Branch,1,ZONE RETAIL BACK_SPACE C END_B - STORY GROUND PSZ-AC MAIN BRANCH,ZONE RETAIL BACK_SPACE C END_B - STORY GROUND PSZ-AC,Air,NODE 65,NODE 66
 Branch List,7,ZONE RETAIL ENTRY A  - STORY GROUND PSZ-AC SUPPLY BRANCHES,ZONE RETAIL ENTRY A  - STORY GROUND PSZ-AC,Air,1
   Branch,1,ZONE RETAIL ENTRY A  - STORY GROUND PSZ-AC MAIN BRANCH,ZONE RETAIL ENTRY A  - STORY GROUND PSZ-AC,Air,NODE 197,NODE 198
 Branch List,8,ZONE RETAIL ENTRY B  - STORY GROUND PSZ-AC SUPPLY BRANCHES,ZONE RETAIL ENTRY B  - STORY GROUND PSZ-AC,Air,1
   Branch,1,ZONE RETAIL ENTRY B  - STORY GROUND PSZ-AC MAIN BRANCH,ZONE RETAIL ENTRY B  - STORY GROUND PSZ-AC,Air,NODE 149,NODE 150
 Branch List,9,ZONE RETAIL ENTRY C  - STORY GROUND PSZ-AC SUPPLY BRANCHES,ZONE RETAIL ENTRY C  - STORY GROUND PSZ-AC,Air,1
   Branch,1,ZONE RETAIL ENTRY C  - STORY GROUND PSZ-AC MAIN BRANCH,ZONE RETAIL ENTRY C  - STORY GROUND PSZ-AC,Air,NODE 245,NODE 246
 Branch List,10,ZONE RETAIL POINT_OF_SALE A  - STORY GROUND PSZ-AC SUPPLY BRANCHES,ZONE RETAIL POINT_OF_SALE A  - STORY GROUND PSZ-AC,Air,1
   Branch,1,ZONE RETAIL POINT_OF_SALE A  - STORY GROUND PSZ-AC MAIN BRANCH,ZONE RETAIL POINT_OF_SALE A  - STORY GROUND PSZ-AC,Air,NODE 41,NODE 42
 Branch List,11,ZONE RETAIL POINT_OF_SALE B  - STORY GROUND PSZ-AC SUPPLY BRANCHES,ZONE RETAIL POINT_OF_SALE B  - STORY GROUND PSZ-AC,Air,1
   Branch,1,ZONE RETAIL POINT_OF_SALE B  - STORY GROUND PSZ-AC MAIN BRANCH,ZONE RETAIL POINT_OF_SALE B  - STORY GROUND PSZ-AC,Air,NODE 137,NODE 138
 Branch List,12,ZONE RETAIL POINT_OF_SALE C  - STORY GROUND PSZ-AC SUPPLY BRANCHES,ZONE RETAIL POINT_OF_SALE C  - STORY GROUND PSZ-AC,Air,1
   Branch,1,ZONE RETAIL POINT_OF_SALE C  - STORY GROUND PSZ-AC MAIN BRANCH,ZONE RETAIL POINT_OF_SALE C  - STORY GROUND PSZ-AC,Air,NODE 53,NODE 54
 Branch List,13,ZONE RETAIL RETAIL A  - STORY GROUND PSZ-AC SUPPLY BRANCHES,ZONE RETAIL RETAIL A  - STORY GROUND PSZ-AC,Air,1
   Branch,1,ZONE RETAIL RETAIL A  - STORY GROUND PSZ-AC MAIN BRANCH,ZONE RETAIL RETAIL A  - STORY GROUND PSZ-AC,Air,NODE 173,NODE 174
 Branch List,14,ZONE RETAIL RETAIL A END_A - STORY GROUND PSZ-AC SUPPLY BRANCHES,ZONE RETAIL RETAIL A END_A - STORY GROUND PSZ-AC,Air,1
   Branch,1,ZONE RETAIL RETAIL A END_A - STORY GROUND PSZ-AC MAIN BRANCH,ZONE RETAIL RETAIL A END_A - STORY GROUND PSZ-AC,Air,NODE 101,NODE 102
 Branch List,15,ZONE RETAIL RETAIL B  - STORY GROUND PSZ-AC SUPPLY BRANCHES,ZONE RETAIL RETAIL B  - STORY GROUND PSZ-AC,Air,1
   Branch,1,ZONE RETAIL RETAIL B  - STORY GROUND PSZ-AC MAIN BRANCH,ZONE RETAIL RETAIL B  - STORY GROUND PSZ-AC,Air,NODE 77,NODE 78
 Branch List,16,ZONE RETAIL RETAIL B END_A - STORY GROUND PSZ-AC SUPPLY BRANCHES,ZONE RETAIL RETAIL B END_A - STORY GROUND PSZ-AC,Air,1
   Branch,1,ZONE RETAIL RETAIL B END_A - STORY GROUND PSZ-AC MAIN BRANCH,ZONE RETAIL RETAIL B END_A - STORY GROUND PSZ-AC,Air,NODE 233,NODE 234
 Branch List,17,ZONE RETAIL RETAIL C  - STORY GROUND PSZ-AC SUPPLY BRANCHES,ZONE RETAIL RETAIL C  - STORY GROUND PSZ-AC,Air,1
   Branch,1,ZONE RETAIL RETAIL C  - STORY GROUND PSZ-AC MAIN BRANCH,ZONE RETAIL RETAIL C  - STORY GROUND PSZ-AC,Air,NODE 209,NODE 210
 Branch List,18,ZONE RETAIL RETAIL C END_A - STORY GROUND PSZ-AC SUPPLY BRANCHES,ZONE RETAIL RETAIL C END_A - STORY GROUND PSZ-AC,Air,1
   Branch,1,ZONE RETAIL RETAIL C END_A - STORY GROUND PSZ-AC MAIN BRANCH,ZONE RETAIL RETAIL C END_A - STORY GROUND PSZ-AC,Air,NODE 185,NODE 186
 Branch List,19,RETAIL SHARED SERVICE WATER LOOP SUPPLY BRANCHES,RETAIL SHARED SERVICE WATER LOOP,Plant Supply,4
   Branch,1,RETAIL SHARED SERVICE WATER LOOP SUPPLY INLET BRANCH,RETAIL SHARED SERVICE WATER LOOP,Plant Supply,NODE 19,NODE 25
   Branch,2,RETAIL SHARED SERVICE WATER LOOP SUPPLY BRANCH 1,RETAIL SHARED SERVICE WATER LOOP,Plant Supply,NODE 21,NODE 26
   Branch,3,RETAIL SHARED SERVICE WATER LOOP SUPPLY BRANCH 2,RETAIL SHARED SERVICE WATER LOOP,Plant Supply,NODE 27,NODE 28
   Branch,4,RETAIL SHARED SERVICE WATER LOOP SUPPLY OUTLET BRANCH,RETAIL SHARED SERVICE WATER LOOP,Plant Supply,NODE 30,NODE 20
 Branch List,20,RETAIL SHARED SERVICE WATER LOOP DEMAND BRANCHES,RETAIL SHARED SERVICE WATER LOOP,Plant Demand,8
   Branch,1,RETAIL SHARED SERVICE WATER LOOP DEMAND INLET BRANCH,RETAIL SHARED SERVICE WATER LOOP,Plant Demand,NODE 22,NODE 31
   Branch,2,RETAIL SHARED SERVICE WATER LOOP DEMAND BRANCH 1,RETAIL SHARED SERVICE WATER LOOP,Plant Demand,NODE 24,NODE 29
   Branch,3,RETAIL SHARED SERVICE WATER LOOP DEMAND BRANCH 2,RETAIL SHARED SERVICE WATER LOOP,Plant Demand,NODE 33,NODE 34
   Branch,4,RETAIL SHARED SERVICE WATER LOOP DEMAND BRANCH 3,RETAIL SHARED SERVICE WATER LOOP,Plant Demand,NODE 35,NODE 36
   Branch,5,RETAIL SHARED SERVICE WATER LOOP DEMAND BRANCH 4,RETAIL SHARED SERVICE WATER LOOP,Plant Demand,NODE 37,NODE 38
   Branch,6,RETAIL SHARED SERVICE WATER LOOP DEMAND BRANCH 5,RETAIL SHARED SERVICE WATER LOOP,Plant Demand,NODE 39,NODE 40
   Branch,7,RETAIL SHARED SERVICE WATER LOOP DEMAND BYPASS BRANCH,RETAIL SHARED SERVICE WATER LOOP,Plant Demand,RETAIL SHARED SERVICE WATER LOOP DEMAND BYPASS PIPE INLET NODE,RETAIL SHARED SERVICE WATER LOOP DEMAND BYPASS PIPE OUTLET NODE
   Branch,8,RETAIL SHARED SERVICE WATER LOOP DEMAND OUTLET BRANCH,RETAIL SHARED SERVICE WATER LOOP,Plant Demand,NODE 32,NODE 23
! ===============================================================
! <#Supply Air Paths>,<Number of Supply Air Paths>
 #Supply Air Paths,18
! <Supply Air Path>,<Supply Air Path Count>,<Supply Air Path Name>,<AirLoopHVAC Name>
! <#Components on Supply Air Path>,<Number of Components>
! <Supply Air Path Component>,<Component Count>,<Component Type>,<Component Name>,<AirLoopHVAC Name>
! <#Outlet Nodes on Supply Air Path Component>,<Number of Nodes>
! <Supply Air Path Component Nodes>,<Node Count>,<Component Type>,<Component Name>,<Inlet Node Name>,<Outlet Node Name>,<AirLoopHVAC Name>
 Supply Air Path,1,ZONE RETAIL BACK_SPACE A  - STORY GROUND PSZ-AC NODE 223 SUPPLY PATH,ZONE RETAIL BACK_SPACE A  - STORY GROUND PSZ-AC
   #Components on Supply Air Path,1
   Supply Air Path Component,1,AIRLOOPHVAC:ZONESPLITTER,AIR LOOP HVAC ZONE SPLITTER 16,ZONE RETAIL BACK_SPACE A  - STORY GROUND PSZ-AC
     #Outlet Nodes on Supply Air Path Component,1
     Supply Air Path Component Nodes,1,AIRLOOPHVAC:ZONESPLITTER,AIR LOOP HVAC ZONE SPLITTER 16,NODE 223,NODE 225,ZONE RETAIL BACK_SPACE A  - STORY GROUND PSZ-AC
! <#Nodes on Supply Air Path>,<Number of Nodes>
! <Supply Air Path Node>,<Node Type>,<Node Count>,<Node Name>,<AirLoopHVAC Name>
#Nodes on Supply Air Path,2
   Supply Air Path Node,Inlet Node,1,NODE 223,ZONE RETAIL BACK_SPACE A  - STORY GROUND PSZ-AC
   Supply Air Path Node,Outlet Node,2,NODE 225,ZONE RETAIL BACK_SPACE A  - STORY GROUND PSZ-AC
 Supply Air Path,2,ZONE RETAIL BACK_SPACE A END_B - STORY GROUND PSZ-AC NODE 127 SUPPLY PATH,ZONE RETAIL BACK_SPACE A END_B - STORY GROUND PSZ-AC
   #Components on Supply Air Path,1
   Supply Air Path Component,1,AIRLOOPHVAC:ZONESPLITTER,AIR LOOP HVAC ZONE SPLITTER 8,ZONE RETAIL BACK_SPACE A END_B - STORY GROUND PSZ-AC
     #Outlet Nodes on Supply Air Path Component,1
     Supply Air Path Component Nodes,1,AIRLOOPHVAC:ZONESPLITTER,AIR LOOP HVAC ZONE SPLITTER 8,NODE 127,NODE 129,ZONE RETAIL BACK_SPACE A END_B - STORY GROUND PSZ-AC
! <#Nodes on Supply Air Path>,<Number of Nodes>
! <Supply Air Path Node>,<Node Type>,<Node Count>,<Node Name>,<AirLoopHVAC Name>
#Nodes on Supply Air Path,2
   Supply Air Path Node,Inlet Node,1,NODE 127,ZONE RETAIL BACK_SPACE A END_B - STORY GROUND PSZ-AC
   Supply Air Path Node,Outlet Node,2,NODE 129,ZONE RETAIL BACK_SPACE A END_B - STORY GROUND PSZ-AC
 Supply Air Path,3,ZONE RETAIL BACK_SPACE B  - STORY GROUND PSZ-AC NODE 115 SUPPLY PATH,ZONE RETAIL BACK_SPACE B  - STORY GROUND PSZ-AC
   #Components on Supply Air Path,1
   Supply Air Path Component,1,AIRLOOPHVAC:ZONESPLITTER,AIR LOOP HVAC ZONE SPLITTER 7,ZONE RETAIL BACK_SPACE B  - STORY GROUND PSZ-AC
     #Outlet Nodes on Supply Air Path Component,1
     Supply Air Path Component Nodes,1,AIRLOOPHVAC:ZONESPLITTER,AIR LOOP HVAC ZONE SPLITTER 7,NODE 115,NODE 117,ZONE RETAIL BACK_SPACE B  - STORY GROUND PSZ-AC
! <#Nodes on Supply Air Path>,<Number of Nodes>
! <Supply Air Path Node>,<Node Type>,<Node Count>,<Node Name>,<AirLoopHVAC Name>
#Nodes on Supply Air Path,2
   Supply Air Path Node,Inlet Node,1,NODE 115,ZONE RETAIL BACK_SPACE B  - STORY GROUND PSZ-AC
   Supply Air Path Node,Outlet Node,2,NODE 117,ZONE RETAIL BACK_SPACE B  - STORY GROUND PSZ-AC
 Supply Air Path,4,ZONE RETAIL BACK_SPACE B END_B - STORY GROUND PSZ-AC NODE 163 SUPPLY PATH,ZONE RETAIL BACK_SPACE B END_B - STORY GROUND PSZ-AC
   #Components on Supply Air Path,1
   Supply Air Path Component,1,AIRLOOPHVAC:ZONESPLITTER,AIR LOOP HVAC ZONE SPLITTER 11,ZONE RETAIL BACK_SPACE B END_B - STORY GROUND PSZ-AC
     #Outlet Nodes on Supply Air Path Component,1
     Supply Air Path Component Nodes,1,AIRLOOPHVAC:ZONESPLITTER,AIR LOOP HVAC ZONE SPLITTER 11,NODE 163,NODE 165,ZONE RETAIL BACK_SPACE B END_B - STORY GROUND PSZ-AC
! <#Nodes on Supply Air Path>,<Number of Nodes>
! <Supply Air Path Node>,<Node Type>,<Node Count>,<Node Name>,<AirLoopHVAC Name>
#Nodes on Supply Air Path,2
   Supply Air Path Node,Inlet Node,1,NODE 163,ZONE RETAIL BACK_SPACE B END_B - STORY GROUND PSZ-AC
   Supply Air Path Node,Outlet Node,2,NODE 165,ZONE RETAIL BACK_SPACE B END_B - STORY GROUND PSZ-AC
 Supply Air Path,5,ZONE RETAIL BACK_SPACE C  - STORY GROUND PSZ-AC NODE 91 SUPPLY PATH,ZONE RETAIL BACK_SPACE C  - STORY GROUND PSZ-AC
   #Components on Supply Air Path,1
   Supply Air Path Component,1,AIRLOOPHVAC:ZONESPLITTER,AIR LOOP HVAC ZONE SPLITTER 5,ZONE RETAIL BACK_SPACE C  - STORY GROUND PSZ-AC
     #Outlet Nodes on Supply Air Path Component,1
     Supply Air Path Component Nodes,1,AIRLOOPHVAC:ZONESPLITTER,AIR LOOP HVAC ZONE SPLITTER 5,NODE 91,NODE 93,ZONE RETAIL BACK_SPACE C  - STORY GROUND PSZ-AC
! <#Nodes on Supply Air Path>,<Number of Nodes>
! <Supply Air Path Node>,<Node Type>,<Node Count>,<Node Name>,<AirLoopHVAC Name>
#Nodes on Supply Air Path,2
   Supply Air Path Node,Inlet Node,1,NODE 91,ZONE RETAIL BACK_SPACE C  - STORY GROUND PSZ-AC
   Supply Air Path Node,Outlet Node,2,NODE 93,ZONE RETAIL BACK_SPACE C  - STORY GROUND PSZ-AC
 Supply Air Path,6,ZONE RETAIL BACK_SPACE C END_B - STORY GROUND PSZ-AC NODE 67 SUPPLY PATH,ZONE RETAIL BACK_SPACE C END_B - STORY GROUND PSZ-AC
   #Components on Supply Air Path,1
   Supply Air Path Component,1,AIRLOOPHVAC:ZONESPLITTER,AIR LOOP HVAC ZONE SPLITTER 3,ZONE RETAIL BACK_SPACE C END_B - STORY GROUND PSZ-AC
     #Outlet Nodes on Supply Air Path Component,1
     Supply Air Path Component Nodes,1,AIRLOOPHVAC:ZONESPLITTER,AIR LOOP HVAC ZONE SPLITTER 3,NODE 67,NODE 69,ZONE RETAIL BACK_SPACE C END_B - STORY GROUND PSZ-AC
! <#Nodes on Supply Air Path>,<Number of Nodes>
! <Supply Air Path Node>,<Node Type>,<Node Count>,<Node Name>,<AirLoopHVAC Name>
#Nodes on Supply Air Path,2
   Supply Air Path Node,Inlet Node,1,NODE 67,ZONE RETAIL BACK_SPACE C END_B - STORY GROUND PSZ-AC
   Supply Air Path Node,Outlet Node,2,NODE 69,ZONE RETAIL BACK_SPACE C END_B - STORY GROUND PSZ-AC
 Supply Air Path,7,ZONE RETAIL ENTRY A  - STORY GROUND PSZ-AC NODE 199 SUPPLY PATH,ZONE RETAIL ENTRY A  - STORY GROUND PSZ-AC
   #Components on Supply Air Path,1
   Supply Air Path Component,1,AIRLOOPHVAC:ZONESPLITTER,AIR LOOP HVAC ZONE SPLITTER 14,ZONE RETAIL ENTRY A  - STORY GROUND PSZ-AC
     #Outlet Nodes on Supply Air Path Component,1
     Supply Air Path Component Nodes,1,AIRLOOPHVAC:ZONESPLITTER,AIR LOOP HVAC ZONE SPLITTER 14,NODE 199,NODE 201,ZONE RETAIL ENTRY A  - STORY GROUND PSZ-AC
! <#Nodes on Supply Air Path>,<Number of Nodes>
! <Supply Air Path Node>,<Node Type>,<Node Count>,<Node Name>,<AirLoopHVAC Name>
#Nodes on Supply Air Path,2
   Supply Air Path Node,Inlet Node,1,NODE 199,ZONE RETAIL ENTRY A  - STORY GROUND PSZ-AC
   Supply Air Path Node,Outlet Node,2,NODE 201,ZONE RETAIL ENTRY A  - STORY GROUND PSZ-AC
 Supply Air Path,8,ZONE RETAIL ENTRY B  - STORY GROUND PSZ-AC NODE 151 SUPPLY PATH,ZONE RETAIL ENTRY B  - STORY GROUND PSZ-AC
   #Components on Supply Air Path,1
   Supply Air Path Component,1,AIRLOOPHVAC:ZONESPLITTER,AIR LOOP HVAC ZONE SPLITTER 10,ZONE RETAIL ENTRY B  - STORY GROUND PSZ-AC
     #Outlet Nodes on Supply Air Path Component,1
     Supply Air Path Component Nodes,1,AIRLOOPHVAC:ZONESPLITTER,AIR LOOP HVAC ZONE SPLITTER 10,NODE 151,NODE 153,ZONE RETAIL ENTRY B  - STORY GROUND PSZ-AC
! <#Nodes on Supply Air Path>,<Number of Nodes>
! <Supply Air Path Node>,<Node Type>,<Node Count>,<Node Name>,<AirLoopHVAC Name>
#Nodes on Supply Air Path,2
   Supply Air Path Node,Inlet Node,1,NODE 151,ZONE RETAIL ENTRY B  - STORY GROUND PSZ-AC
   Supply Air Path Node,Outlet Node,2,NODE 153,ZONE RETAIL ENTRY B  - STORY GROUND PSZ-AC
 Supply Air Path,9,ZONE RETAIL ENTRY C  - STORY GROUND PSZ-AC NODE 247 SUPPLY PATH,ZONE RETAIL ENTRY C  - STORY GROUND PSZ-AC
   #Components on Supply Air Path,1
   Supply Air Path Component,1,AIRLOOPHVAC:ZONESPLITTER,AIR LOOP HVAC ZONE SPLITTER 18,ZONE RETAIL ENTRY C  - STORY GROUND PSZ-AC
     #Outlet Nodes on Supply Air Path Component,1
     Supply Air Path Component Nodes,1,AIRLOOPHVAC:ZONESPLITTER,AIR LOOP HVAC ZONE SPLITTER 18,NODE 247,NODE 249,ZONE RETAIL ENTRY C  - STORY GROUND PSZ-AC
! <#Nodes on Supply Air Path>,<Number of Nodes>
! <Supply Air Path Node>,<Node Type>,<Node Count>,<Node Name>,<AirLoopHVAC Name>
#Nodes on Supply Air Path,2
   Supply Air Path Node,Inlet Node,1,NODE 247,ZONE RETAIL ENTRY C  - STORY GROUND PSZ-AC
   Supply Air Path Node,Outlet Node,2,NODE 249,ZONE RETAIL ENTRY C  - STORY GROUND PSZ-AC
 Supply Air Path,10,ZONE RETAIL POINT_OF_SALE A  - STORY GROUND PSZ-AC NODE 43 SUPPLY PATH,ZONE RETAIL POINT_OF_SALE A  - STORY GROUND PSZ-AC
   #Components on Supply Air Path,1
   Supply Air Path Component,1,AIRLOOPHVAC:ZONESPLITTER,AIR LOOP HVAC ZONE SPLITTER 1,ZONE RETAIL POINT_OF_SALE A  - STORY GROUND PSZ-AC
     #Outlet Nodes on Supply Air Path Component,1
     Supply Air Path Component Nodes,1,AIRLOOPHVAC:ZONESPLITTER,AIR LOOP HVAC ZONE SPLITTER 1,NODE 43,NODE 45,ZONE RETAIL POINT_OF_SALE A  - STORY GROUND PSZ-AC
! <#Nodes on Supply Air Path>,<Number of Nodes>
! <Supply Air Path Node>,<Node Type>,<Node Count>,<Node Name>,<AirLoopHVAC Name>
#Nodes on Supply Air Path,2
   Supply Air Path Node,Inlet Node,1,NODE 43,ZONE RETAIL POINT_OF_SALE A  - STORY GROUND PSZ-AC
   Supply Air Path Node,Outlet Node,2,NODE 45,ZONE RETAIL POINT_OF_SALE A  - STORY GROUND PSZ-AC
 Supply Air Path,11,ZONE RETAIL POINT_OF_SALE B  - STORY GROUND PSZ-AC NODE 139 SUPPLY PATH,ZONE RETAIL POINT_OF_SALE B  - STORY GROUND PSZ-AC
   #Components on Supply Air Path,1
   Supply Air Path Component,1,AIRLOOPHVAC:ZONESPLITTER,AIR LOOP HVAC ZONE SPLITTER 9,ZONE RETAIL POINT_OF_SALE B  - STORY GROUND PSZ-AC
     #Outlet Nodes on Supply Air Path Component,1
     Supply Air Path Component Nodes,1,AIRLOOPHVAC:ZONESPLITTER,AIR LOOP HVAC ZONE SPLITTER 9,NODE 139,NODE 141,ZONE RETAIL POINT_OF_SALE B  - STORY GROUND PSZ-AC
! <#Nodes on Supply Air Path>,<Number of Nodes>
! <Supply Air Path Node>,<Node Type>,<Node Count>,<Node Name>,<AirLoopHVAC Name>
#Nodes on Supply Air Path,2
   Supply Air Path Node,Inlet Node,1,NODE 139,ZONE RETAIL POINT_OF_SALE B  - STORY GROUND PSZ-AC
   Supply Air Path Node,Outlet Node,2,NODE 141,ZONE RETAIL POINT_OF_SALE B  - STORY GROUND PSZ-AC
 Supply Air Path,12,ZONE RETAIL POINT_OF_SALE C  - STORY GROUND PSZ-AC NODE 55 SUPPLY PATH,ZONE RETAIL POINT_OF_SALE C  - STORY GROUND PSZ-AC
   #Components on Supply Air Path,1
   Supply Air Path Component,1,AIRLOOPHVAC:ZONESPLITTER,AIR LOOP HVAC ZONE SPLITTER 2,ZONE RETAIL POINT_OF_SALE C  - STORY GROUND PSZ-AC
     #Outlet Nodes on Supply Air Path Component,1
     Supply Air Path Component Nodes,1,AIRLOOPHVAC:ZONESPLITTER,AIR LOOP HVAC ZONE SPLITTER 2,NODE 55,NODE 57,ZONE RETAIL POINT_OF_SALE C  - STORY GROUND PSZ-AC
! <#Nodes on Supply Air Path>,<Number of Nodes>
! <Supply Air Path Node>,<Node Type>,<Node Count>,<Node Name>,<AirLoopHVAC Name>
#Nodes on Supply Air Path,2
   Supply Air Path Node,Inlet Node,1,NODE 55,ZONE RETAIL POINT_OF_SALE C  - STORY GROUND PSZ-AC
   Supply Air Path Node,Outlet Node,2,NODE 57,ZONE RETAIL POINT_OF_SALE C  - STORY GROUND PSZ-AC
 Supply Air Path,13,ZONE RETAIL RETAIL A  - STORY GROUND PSZ-AC NODE 175 SUPPLY PATH,ZONE RETAIL RETAIL A  - STORY GROUND PSZ-AC
   #Components on Supply Air Path,1
   Supply Air Path Component,1,AIRLOOPHVAC:ZONESPLITTER,AIR LOOP HVAC ZONE SPLITTER 12,ZONE RETAIL RETAIL A  - STORY GROUND PSZ-AC
     #Outlet Nodes on Supply Air Path Component,1
     Supply Air Path Component Nodes,1,AIRLOOPHVAC:ZONESPLITTER,AIR LOOP HVAC ZONE SPLITTER 12,NODE 175,NODE 177,ZONE RETAIL RETAIL A  - STORY GROUND PSZ-AC
! <#Nodes on Supply Air Path>,<Number of Nodes>
! <Supply Air Path Node>,<Node Type>,<Node Count>,<Node Name>,<AirLoopHVAC Name>
#Nodes on Supply Air Path,2
   Supply Air Path Node,Inlet Node,1,NODE 175,ZONE RETAIL RETAIL A  - STORY GROUND PSZ-AC
   Supply Air Path Node,Outlet Node,2,NODE 177,ZONE RETAIL RETAIL A  - STORY GROUND PSZ-AC
 Supply Air Path,14,ZONE RETAIL RETAIL A END_A - STORY GROUND PSZ-AC NODE 103 SUPPLY PATH,ZONE RETAIL RETAIL A END_A - STORY GROUND PSZ-AC
   #Components on Supply Air Path,1
   Supply Air Path Component,1,AIRLOOPHVAC:ZONESPLITTER,AIR LOOP HVAC ZONE SPLITTER 6,ZONE RETAIL RETAIL A END_A - STORY GROUND PSZ-AC
     #Outlet Nodes on Supply Air Path Component,1
     Supply Air Path Component Nodes,1,AIRLOOPHVAC:ZONESPLITTER,AIR LOOP HVAC ZONE SPLITTER 6,NODE 103,NODE 105,ZONE RETAIL RETAIL A END_A - STORY GROUND PSZ-AC
! <#Nodes on Supply Air Path>,<Number of Nodes>
! <Supply Air Path Node>,<Node Type>,<Node Count>,<Node Name>,<AirLoopHVAC Name>
#Nodes on Supply Air Path,2
   Supply Air Path Node,Inlet Node,1,NODE 103,ZONE RETAIL RETAIL A END_A - STORY GROUND PSZ-AC
   Supply Air Path Node,Outlet Node,2,NODE 105,ZONE RETAIL RETAIL A END_A - STORY GROUND PSZ-AC
 Supply Air Path,15,ZONE RETAIL RETAIL B  - STORY GROUND PSZ-AC NODE 79 SUPPLY PATH,ZONE RETAIL RETAIL B  - STORY GROUND PSZ-AC
   #Components on Supply Air Path,1
   Supply Air Path Component,1,AIRLOOPHVAC:ZONESPLITTER,AIR LOOP HVAC ZONE SPLITTER 4,ZONE RETAIL RETAIL B  - STORY GROUND PSZ-AC
     #Outlet Nodes on Supply Air Path Component,1
     Supply Air Path Component Nodes,1,AIRLOOPHVAC:ZONESPLITTER,AIR LOOP HVAC ZONE SPLITTER 4,NODE 79,NODE 81,ZONE RETAIL RETAIL B  - STORY GROUND PSZ-AC
! <#Nodes on Supply Air Path>,<Number of Nodes>
! <Supply Air Path Node>,<Node Type>,<Node Count>,<Node Name>,<AirLoopHVAC Name>
#Nodes on Supply Air Path,2
   Supply Air Path Node,Inlet Node,1,NODE 79,ZONE RETAIL RETAIL B  - STORY GROUND PSZ-AC
   Supply Air Path Node,Outlet Node,2,NODE 81,ZONE RETAIL RETAIL B  - STORY GROUND PSZ-AC
 Supply Air Path,16,ZONE RETAIL RETAIL B END_A - STORY GROUND PSZ-AC NODE 235 SUPPLY PATH,ZONE RETAIL RETAIL B END_A - STORY GROUND PSZ-AC
   #Components on Supply Air Path,1
   Supply Air Path Component,1,AIRLOOPHVAC:ZONESPLITTER,AIR LOOP HVAC ZONE SPLITTER 17,ZONE RETAIL RETAIL B END_A - STORY GROUND PSZ-AC
     #Outlet Nodes on Supply Air Path Component,1
     Supply Air Path Component Nodes,1,AIRLOOPHVAC:ZONESPLITTER,AIR LOOP HVAC ZONE SPLITTER 17,NODE 235,NODE 237,ZONE RETAIL RETAIL B END_A - STORY GROUND PSZ-AC
! <#Nodes on Supply Air Path>,<Number of Nodes>
! <Supply Air Path Node>,<Node Type>,<Node Count>,<Node Name>,<AirLoopHVAC Name>
#Nodes on Supply Air Path,2
   Supply Air Path Node,Inlet Node,1,NODE 235,ZONE RETAIL RETAIL B END_A - STORY GROUND PSZ-AC
   Supply Air Path Node,Outlet Node,2,NODE 237,ZONE RETAIL RETAIL B END_A - STORY GROUND PSZ-AC
 Supply Air Path,17,ZONE RETAIL RETAIL C  - STORY GROUND PSZ-AC NODE 211 SUPPLY PATH,ZONE RETAIL RETAIL C  - STORY GROUND PSZ-AC
   #Components on Supply Air Path,1
   Supply Air Path Component,1,AIRLOOPHVAC:ZONESPLITTER,AIR LOOP HVAC ZONE SPLITTER 15,ZONE RETAIL RETAIL C  - STORY GROUND PSZ-AC
     #Outlet Nodes on Supply Air Path Component,1
     Supply Air Path Component Nodes,1,AIRLOOPHVAC:ZONESPLITTER,AIR LOOP HVAC ZONE SPLITTER 15,NODE 211,NODE 213,ZONE RETAIL RETAIL C  - STORY GROUND PSZ-AC
! <#Nodes on Supply Air Path>,<Number of Nodes>
! <Supply Air Path Node>,<Node Type>,<Node Count>,<Node Name>,<AirLoopHVAC Name>
#Nodes on Supply Air Path,2
   Supply Air Path Node,Inlet Node,1,NODE 211,ZONE RETAIL RETAIL C  - STORY GROUND PSZ-AC
   Supply Air Path Node,Outlet Node,2,NODE 213,ZONE RETAIL RETAIL C  - STORY GROUND PSZ-AC
 Supply Air Path,18,ZONE RETAIL RETAIL C END_A - STORY GROUND PSZ-AC NODE 187 SUPPLY PATH,ZONE RETAIL RETAIL C END_A - STORY GROUND PSZ-AC
   #Components on Supply Air Path,1
   Supply Air Path Component,1,AIRLOOPHVAC:ZONESPLITTER,AIR LOOP HVAC ZONE SPLITTER 13,ZONE RETAIL RETAIL C END_A - STORY GROUND PSZ-AC
     #Outlet Nodes on Supply Air Path Component,1
     Supply Air Path Component Nodes,1,AIRLOOPHVAC:ZONESPLITTER,AIR LOOP HVAC ZONE SPLITTER 13,NODE 187,NODE 189,ZONE RETAIL RETAIL C END_A - STORY GROUND PSZ-AC
! <#Nodes on Supply Air Path>,<Number of Nodes>
! <Supply Air Path Node>,<Node Type>,<Node Count>,<Node Name>,<AirLoopHVAC Name>
#Nodes on Supply Air Path,2
   Supply Air Path Node,Inlet Node,1,NODE 187,ZONE RETAIL RETAIL C END_A - STORY GROUND PSZ-AC
   Supply Air Path Node,Outlet Node,2,NODE 189,ZONE RETAIL RETAIL C END_A - STORY GROUND PSZ-AC
! ===============================================================
! <#Return Air Paths>,<Number of Return Air Paths>
 #Return Air Paths,18
! <Return Air Path>,<Return Air Path Count>,<Return Air Path Name>,<AirLoopHVAC Name>
! <#Components on Return Air Path>,<Number of Components>
! <Return Air Path Component>,<Component Count>,<Component Type>,<Component Name>,<AirLoopHVAC Name>
! <#Inlet Nodes on Return Air Path Component>,<Number of Nodes>
! <Return Air Path Component Nodes>,<Node Count>,<Component Type>,<Component Name>,<Inlet Node Name>,<Outlet Node Name>,<AirLoopHVAC Name>
 Return Air Path,1,ZONE RETAIL BACK_SPACE A  - STORY GROUND PSZ-AC RETURN PATH,ZONE RETAIL BACK_SPACE A  - STORY GROUND PSZ-AC
   #Components on Return Air Path,1
   Return Air Path Component,1,AIRLOOPHVAC:ZONEMIXER,AIR LOOP HVAC ZONE MIXER 16,ZONE RETAIL BACK_SPACE A  - STORY GROUND PSZ-AC
     #Inlet Nodes on Return Air Path Component,1
     Return Air Path Component Nodes,1,AIRLOOPHVAC:ZONEMIXER,AIR LOOP HVAC ZONE MIXER 16,NODE 232,NODE 224,ZONE RETAIL BACK_SPACE A  - STORY GROUND PSZ-AC
! <#Nodes on Return Air Path>,<Number of Nodes>
! <Return Air Path Node>,<Node Type>,<Node Count>,<Node Name>,<AirLoopHVAC Name>
   #Nodes on Return Air Path,2
   Return Air Path Node,Outlet Node,1,NODE 224,ZONE RETAIL BACK_SPACE A  - STORY GROUND PSZ-AC
   Return Air Path Node,Inlet Node,2,NODE 232,ZONE RETAIL BACK_SPACE A  - STORY GROUND PSZ-AC
 Return Air Path,2,ZONE RETAIL BACK_SPACE A END_B - STORY GROUND PSZ-AC RETURN PATH,ZONE RETAIL BACK_SPACE A END_B - STORY GROUND PSZ-AC
   #Components on Return Air Path,1
   Return Air Path Component,1,AIRLOOPHVAC:ZONEMIXER,AIR LOOP HVAC ZONE MIXER 8,ZONE RETAIL BACK_SPACE A END_B - STORY GROUND PSZ-AC
     #Inlet Nodes on Return Air Path Component,1
     Return Air Path Component Nodes,1,AIRLOOPHVAC:ZONEMIXER,AIR LOOP HVAC ZONE MIXER 8,NODE 136,NODE 128,ZONE RETAIL BACK_SPACE A END_B - STORY GROUND PSZ-AC
! <#Nodes on Return Air Path>,<Number of Nodes>
! <Return Air Path Node>,<Node Type>,<Node Count>,<Node Name>,<AirLoopHVAC Name>
   #Nodes on Return Air Path,2
   Return Air Path Node,Outlet Node,1,NODE 128,ZONE RETAIL BACK_SPACE A END_B - STORY GROUND PSZ-AC
   Return Air Path Node,Inlet Node,2,NODE 136,ZONE RETAIL BACK_SPACE A END_B - STORY GROUND PSZ-AC
 Return Air Path,3,ZONE RETAIL BACK_SPACE B  - STORY GROUND PSZ-AC RETURN PATH,ZONE RETAIL BACK_SPACE B  - STORY GROUND PSZ-AC
   #Components on Return Air Path,1
   Return Air Path Component,1,AIRLOOPHVAC:ZONEMIXER,AIR LOOP HVAC ZONE MIXER 7,ZONE RETAIL BACK_SPACE B  - STORY GROUND PSZ-AC
     #Inlet Nodes on Return Air Path Component,1
     Return Air Path Component Nodes,1,AIRLOOPHVAC:ZONEMIXER,AIR LOOP HVAC ZONE MIXER 7,NODE 124,NODE 116,ZONE RETAIL BACK_SPACE B  - STORY GROUND PSZ-AC
! <#Nodes on Return Air Path>,<Number of Nodes>
! <Return Air Path Node>,<Node Type>,<Node Count>,<Node Name>,<AirLoopHVAC Name>
   #Nodes on Return Air Path,2
   Return Air Path Node,Outlet Node,1,NODE 116,ZONE RETAIL BACK_SPACE B  - STORY GROUND PSZ-AC
   Return Air Path Node,Inlet Node,2,NODE 124,ZONE RETAIL BACK_SPACE B  - STORY GROUND PSZ-AC
 Return Air Path,4,ZONE RETAIL BACK_SPACE B END_B - STORY GROUND PSZ-AC RETURN PATH,ZONE RETAIL BACK_SPACE B END_B - STORY GROUND PSZ-AC
   #Components on Return Air Path,1
   Return Air Path Component,1,AIRLOOPHVAC:ZONEMIXER,AIR LOOP HVAC ZONE MIXER 11,ZONE RETAIL BACK_SPACE B END_B - STORY GROUND PSZ-AC
     #Inlet Nodes on Return Air Path Component,1
     Return Air Path Component Nodes,1,AIRLOOPHVAC:ZONEMIXER,AIR LOOP HVAC ZONE MIXER 11,NODE 172,NODE 164,ZONE RETAIL BACK_SPACE B END_B - STORY GROUND PSZ-AC
! <#Nodes on Return Air Path>,<Number of Nodes>
! <Return Air Path Node>,<Node Type>,<Node Count>,<Node Name>,<AirLoopHVAC Name>
   #Nodes on Return Air Path,2
   Return Air Path Node,Outlet Node,1,NODE 164,ZONE RETAIL BACK_SPACE B END_B - STORY GROUND PSZ-AC
   Return Air Path Node,Inlet Node,2,NODE 172,ZONE RETAIL BACK_SPACE B END_B - STORY GROUND PSZ-AC
 Return Air Path,5,ZONE RETAIL BACK_SPACE C  - STORY GROUND PSZ-AC RETURN PATH,ZONE RETAIL BACK_SPACE C  - STORY GROUND PSZ-AC
   #Components on Return Air Path,1
   Return Air Path Component,1,AIRLOOPHVAC:ZONEMIXER,AIR LOOP HVAC ZONE MIXER 5,ZONE RETAIL BACK_SPACE C  - STORY GROUND PSZ-AC
     #Inlet Nodes on Return Air Path Component,1
     Return Air Path Component Nodes,1,AIRLOOPHVAC:ZONEMIXER,AIR LOOP HVAC ZONE MIXER 5,NODE 100,NODE 92,ZONE RETAIL BACK_SPACE C  - STORY GROUND PSZ-AC
! <#Nodes on Return Air Path>,<Number of Nodes>
! <Return Air Path Node>,<Node Type>,<Node Count>,<Node Name>,<AirLoopHVAC Name>
   #Nodes on Return Air Path,2
   Return Air Path Node,Outlet Node,1,NODE 92,ZONE RETAIL BACK_SPACE C  - STORY GROUND PSZ-AC
   Return Air Path Node,Inlet Node,2,NODE 100,ZONE RETAIL BACK_SPACE C  - STORY GROUND PSZ-AC
 Return Air Path,6,ZONE RETAIL BACK_SPACE C END_B - STORY GROUND PSZ-AC RETURN PATH,ZONE RETAIL BACK_SPACE C END_B - STORY GROUND PSZ-AC
   #Components on Return Air Path,1
   Return Air Path Component,1,AIRLOOPHVAC:ZONEMIXER,AIR LOOP HVAC ZONE MIXER 3,ZONE RETAIL BACK_SPACE C END_B - STORY GROUND PSZ-AC
     #Inlet Nodes on Return Air Path Component,1
     Return Air Path Component Nodes,1,AIRLOOPHVAC:ZONEMIXER,AIR LOOP HVAC ZONE MIXER 3,NODE 76,NODE 68,ZONE RETAIL BACK_SPACE C END_B - STORY GROUND PSZ-AC
! <#Nodes on Return Air Path>,<Number of Nodes>
! <Return Air Path Node>,<Node Type>,<Node Count>,<Node Name>,<AirLoopHVAC Name>
   #Nodes on Return Air Path,2
   Return Air Path Node,Outlet Node,1,NODE 68,ZONE RETAIL BACK_SPACE C END_B - STORY GROUND PSZ-AC
   Return Air Path Node,Inlet Node,2,NODE 76,ZONE RETAIL BACK_SPACE C END_B - STORY GROUND PSZ-AC
 Return Air Path,7,ZONE RETAIL ENTRY A  - STORY GROUND PSZ-AC RETURN PATH,ZONE RETAIL ENTRY A  - STORY GROUND PSZ-AC
   #Components on Return Air Path,1
   Return Air Path Component,1,AIRLOOPHVAC:ZONEMIXER,AIR LOOP HVAC ZONE MIXER 14,ZONE RETAIL ENTRY A  - STORY GROUND PSZ-AC
     #Inlet Nodes on Return Air Path Component,1
     Return Air Path Component Nodes,1,AIRLOOPHVAC:ZONEMIXER,AIR LOOP HVAC ZONE MIXER 14,NODE 208,NODE 200,ZONE RETAIL ENTRY A  - STORY GROUND PSZ-AC
! <#Nodes on Return Air Path>,<Number of Nodes>
! <Return Air Path Node>,<Node Type>,<Node Count>,<Node Name>,<AirLoopHVAC Name>
   #Nodes on Return Air Path,2
   Return Air Path Node,Outlet Node,1,NODE 200,ZONE RETAIL ENTRY A  - STORY GROUND PSZ-AC
   Return Air Path Node,Inlet Node,2,NODE 208,ZONE RETAIL ENTRY A  - STORY GROUND PSZ-AC
 Return Air Path,8,ZONE RETAIL ENTRY B  - STORY GROUND PSZ-AC RETURN PATH,ZONE RETAIL ENTRY B  - STORY GROUND PSZ-AC
   #Components on Return Air Path,1
   Return Air Path Component,1,AIRLOOPHVAC:ZONEMIXER,AIR LOOP HVAC ZONE MIXER 10,ZONE RETAIL ENTRY B  - STORY GROUND PSZ-AC
     #Inlet Nodes on Return Air Path Component,1
     Return Air Path Component Nodes,1,AIRLOOPHVAC:ZONEMIXER,AIR LOOP HVAC ZONE MIXER 10,NODE 160,NODE 152,ZONE RETAIL ENTRY B  - STORY GROUND PSZ-AC
! <#Nodes on Return Air Path>,<Number of Nodes>
! <Return Air Path Node>,<Node Type>,<Node Count>,<Node Name>,<AirLoopHVAC Name>
   #Nodes on Return Air Path,2
   Return Air Path Node,Outlet Node,1,NODE 152,ZONE RETAIL ENTRY B  - STORY GROUND PSZ-AC
   Return Air Path Node,Inlet Node,2,NODE 160,ZONE RETAIL ENTRY B  - STORY GROUND PSZ-AC
 Return Air Path,9,ZONE RETAIL ENTRY C  - STORY GROUND PSZ-AC RETURN PATH,ZONE RETAIL ENTRY C  - STORY GROUND PSZ-AC
   #Components on Return Air Path,1
   Return Air Path Component,1,AIRLOOPHVAC:ZONEMIXER,AIR LOOP HVAC ZONE MIXER 18,ZONE RETAIL ENTRY C  - STORY GROUND PSZ-AC
     #Inlet Nodes on Return Air Path Component,1
     Return Air Path Component Nodes,1,AIRLOOPHVAC:ZONEMIXER,AIR LOOP HVAC ZONE MIXER 18,NODE 256,NODE 248,ZONE RETAIL ENTRY C  - STORY GROUND PSZ-AC
! <#Nodes on Return Air Path>,<Number of Nodes>
! <Return Air Path Node>,<Node Type>,<Node Count>,<Node Name>,<AirLoopHVAC Name>
   #Nodes on Return Air Path,2
   Return Air Path Node,Outlet Node,1,NODE 248,ZONE RETAIL ENTRY C  - STORY GROUND PSZ-AC
   Return Air Path Node,Inlet Node,2,NODE 256,ZONE RETAIL ENTRY C  - STORY GROUND PSZ-AC
 Return Air Path,10,ZONE RETAIL POINT_OF_SALE A  - STORY GROUND PSZ-AC RETURN PATH,ZONE RETAIL POINT_OF_SALE A  - STORY GROUND PSZ-AC
   #Components on Return Air Path,1
   Return Air Path Component,1,AIRLOOPHVAC:ZONEMIXER,AIR LOOP HVAC ZONE MIXER 1,ZONE RETAIL POINT_OF_SALE A  - STORY GROUND PSZ-AC
     #Inlet Nodes on Return Air Path Component,1
     Return Air Path Component Nodes,1,AIRLOOPHVAC:ZONEMIXER,AIR LOOP HVAC ZONE MIXER 1,NODE 52,NODE 44,ZONE RETAIL POINT_OF_SALE A  - STORY GROUND PSZ-AC
! <#Nodes on Return Air Path>,<Number of Nodes>
! <Return Air Path Node>,<Node Type>,<Node Count>,<Node Name>,<AirLoopHVAC Name>
   #Nodes on Return Air Path,2
   Return Air Path Node,Outlet Node,1,NODE 44,ZONE RETAIL POINT_OF_SALE A  - STORY GROUND PSZ-AC
   Return Air Path Node,Inlet Node,2,NODE 52,ZONE RETAIL POINT_OF_SALE A  - STORY GROUND PSZ-AC
 Return Air Path,11,ZONE RETAIL POINT_OF_SALE B  - STORY GROUND PSZ-AC RETURN PATH,ZONE RETAIL POINT_OF_SALE B  - STORY GROUND PSZ-AC
   #Components on Return Air Path,1
   Return Air Path Component,1,AIRLOOPHVAC:ZONEMIXER,AIR LOOP HVAC ZONE MIXER 9,ZONE RETAIL POINT_OF_SALE B  - STORY GROUND PSZ-AC
     #Inlet Nodes on Return Air Path Component,1
     Return Air Path Component Nodes,1,AIRLOOPHVAC:ZONEMIXER,AIR LOOP HVAC ZONE MIXER 9,NODE 148,NODE 140,ZONE RETAIL POINT_OF_SALE B  - STORY GROUND PSZ-AC
! <#Nodes on Return Air Path>,<Number of Nodes>
! <Return Air Path Node>,<Node Type>,<Node Count>,<Node Name>,<AirLoopHVAC Name>
   #Nodes on Return Air Path,2
   Return Air Path Node,Outlet Node,1,NODE 140,ZONE RETAIL POINT_OF_SALE B  - STORY GROUND PSZ-AC
   Return Air Path Node,Inlet Node,2,NODE 148,ZONE RETAIL POINT_OF_SALE B  - STORY GROUND PSZ-AC
 Return Air Path,12,ZONE RETAIL POINT_OF_SALE C  - STORY GROUND PSZ-AC RETURN PATH,ZONE RETAIL POINT_OF_SALE C  - STORY GROUND PSZ-AC
   #Components on Return Air Path,1
   Return Air Path Component,1,AIRLOOPHVAC:ZONEMIXER,AIR LOOP HVAC ZONE MIXER 2,ZONE RETAIL POINT_OF_SALE C  - STORY GROUND PSZ-AC
     #Inlet Nodes on Return Air Path Component,1
     Return Air Path Component Nodes,1,AIRLOOPHVAC:ZONEMIXER,AIR LOOP HVAC ZONE MIXER 2,NODE 64,NODE 56,ZONE RETAIL POINT_OF_SALE C  - STORY GROUND PSZ-AC
! <#Nodes on Return Air Path>,<Number of Nodes>
! <Return Air Path Node>,<Node Type>,<Node Count>,<Node Name>,<AirLoopHVAC Name>
   #Nodes on Return Air Path,2
   Return Air Path Node,Outlet Node,1,NODE 56,ZONE RETAIL POINT_OF_SALE C  - STORY GROUND PSZ-AC
   Return Air Path Node,Inlet Node,2,NODE 64,ZONE RETAIL POINT_OF_SALE C  - STORY GROUND PSZ-AC
 Return Air Path,13,ZONE RETAIL RETAIL A  - STORY GROUND PSZ-AC RETURN PATH,ZONE RETAIL RETAIL A  - STORY GROUND PSZ-AC
   #Components on Return Air Path,1
   Return Air Path Component,1,AIRLOOPHVAC:ZONEMIXER,AIR LOOP HVAC ZONE MIXER 12,ZONE RETAIL RETAIL A  - STORY GROUND PSZ-AC
     #Inlet Nodes on Return Air Path Component,1
     Return Air Path Component Nodes,1,AIRLOOPHVAC:ZONEMIXER,AIR LOOP HVAC ZONE MIXER 12,NODE 184,NODE 176,ZONE RETAIL RETAIL A  - STORY GROUND PSZ-AC
! <#Nodes on Return Air Path>,<Number of Nodes>
! <Return Air Path Node>,<Node Type>,<Node Count>,<Node Name>,<AirLoopHVAC Name>
   #Nodes on Return Air Path,2
   Return Air Path Node,Outlet Node,1,NODE 176,ZONE RETAIL RETAIL A  - STORY GROUND PSZ-AC
   Return Air Path Node,Inlet Node,2,NODE 184,ZONE RETAIL RETAIL A  - STORY GROUND PSZ-AC
 Return Air Path,14,ZONE RETAIL RETAIL A END_A - STORY GROUND PSZ-AC RETURN PATH,ZONE RETAIL RETAIL A END_A - STORY GROUND PSZ-AC
   #Components on Return Air Path,1
   Return Air Path Component,1,AIRLOOPHVAC:ZONEMIXER,AIR LOOP HVAC ZONE MIXER 6,ZONE RETAIL RETAIL A END_A - STORY GROUND PSZ-AC
     #Inlet Nodes on Return Air Path Component,1
     Return Air Path Component Nodes,1,AIRLOOPHVAC:ZONEMIXER,AIR LOOP HVAC ZONE MIXER 6,NODE 112,NODE 104,ZONE RETAIL RETAIL A END_A - STORY GROUND PSZ-AC
! <#Nodes on Return Air Path>,<Number of Nodes>
! <Return Air Path Node>,<Node Type>,<Node Count>,<Node Name>,<AirLoopHVAC Name>
   #Nodes on Return Air Path,2
   Return Air Path Node,Outlet Node,1,NODE 104,ZONE RETAIL RETAIL A END_A - STORY GROUND PSZ-AC
   Return Air Path Node,Inlet Node,2,NODE 112,ZONE RETAIL RETAIL A END_A - STORY GROUND PSZ-AC
 Return Air Path,15,ZONE RETAIL RETAIL B  - STORY GROUND PSZ-AC RETURN PATH,ZONE RETAIL RETAIL B  - STORY GROUND PSZ-AC
   #Components on Return Air Path,1
   Return Air Path Component,1,AIRLOOPHVAC:ZONEMIXER,AIR LOOP HVAC ZONE MIXER 4,ZONE RETAIL RETAIL B  - STORY GROUND PSZ-AC
     #Inlet Nodes on Return Air Path Component,1
     Return Air Path Component Nodes,1,AIRLOOPHVAC:ZONEMIXER,AIR LOOP HVAC ZONE MIXER 4,NODE 88,NODE 80,ZONE RETAIL RETAIL B  - STORY GROUND PSZ-AC
! <#Nodes on Return Air Path>,<Number of Nodes>
! <Return Air Path Node>,<Node Type>,<Node Count>,<Node Name>,<AirLoopHVAC Name>
   #Nodes on Return Air Path,2
   Return Air Path Node,Outlet Node,1,NODE 80,ZONE RETAIL RETAIL B  - STORY GROUND PSZ-AC
   Return Air Path Node,Inlet Node,2,NODE 88,ZONE RETAIL RETAIL B  - STORY GROUND PSZ-AC
 Return Air Path,16,ZONE RETAIL RETAIL B END_A - STORY GROUND PSZ-AC RETURN PATH,ZONE RETAIL RETAIL B END_A - STORY GROUND PSZ-AC
   #Components on Return Air Path,1
   Return Air Path Component,1,AIRLOOPHVAC:ZONEMIXER,AIR LOOP HVAC ZONE MIXER 17,ZONE RETAIL RETAIL B END_A - STORY GROUND PSZ-AC
     #Inlet Nodes on Return Air Path Component,1
     Return Air Path Component Nodes,1,AIRLOOPHVAC:ZONEMIXER,AIR LOOP HVAC ZONE MIXER 17,NODE 244,NODE 236,ZONE RETAIL RETAIL B END_A - STORY GROUND PSZ-AC
! <#Nodes on Return Air Path>,<Number of Nodes>
! <Return Air Path Node>,<Node Type>,<Node Count>,<Node Name>,<AirLoopHVAC Name>
   #Nodes on Return Air Path,2
   Return Air Path Node,Outlet Node,1,NODE 236,ZONE RETAIL RETAIL B END_A - STORY GROUND PSZ-AC
   Return Air Path Node,Inlet Node,2,NODE 244,ZONE RETAIL RETAIL B END_A - STORY GROUND PSZ-AC
 Return Air Path,17,ZONE RETAIL RETAIL C  - STORY GROUND PSZ-AC RETURN PATH,ZONE RETAIL RETAIL C  - STORY GROUND PSZ-AC
   #Components on Return Air Path,1
   Return Air Path Component,1,AIRLOOPHVAC:ZONEMIXER,AIR LOOP HVAC ZONE MIXER 15,ZONE RETAIL RETAIL C  - STORY GROUND PSZ-AC
     #Inlet Nodes on Return Air Path Component,1
     Return Air Path Component Nodes,1,AIRLOOPHVAC:ZONEMIXER,AIR LOOP HVAC ZONE MIXER 15,NODE 220,NODE 212,ZONE RETAIL RETAIL C  - STORY GROUND PSZ-AC
! <#Nodes on Return Air Path>,<Number of Nodes>
! <Return Air Path Node>,<Node Type>,<Node Count>,<Node Name>,<AirLoopHVAC Name>
   #Nodes on Return Air Path,2
   Return Air Path Node,Outlet Node,1,NODE 212,ZONE RETAIL RETAIL C  - STORY GROUND PSZ-AC
   Return Air Path Node,Inlet Node,2,NODE 220,ZONE RETAIL RETAIL C  - STORY GROUND PSZ-AC
 Return Air Path,18,ZONE RETAIL RETAIL C END_A - STORY GROUND PSZ-AC RETURN PATH,ZONE RETAIL RETAIL C END_A - STORY GROUND PSZ-AC
   #Components on Return Air Path,1
   Return Air Path Component,1,AIRLOOPHVAC:ZONEMIXER,AIR LOOP HVAC ZONE MIXER 13,ZONE RETAIL RETAIL C END_A - STORY GROUND PSZ-AC
     #Inlet Nodes on Return Air Path Component,1
     Return Air Path Component Nodes,1,AIRLOOPHVAC:ZONEMIXER,AIR LOOP HVAC ZONE MIXER 13,NODE 196,NODE 188,ZONE RETAIL RETAIL C END_A - STORY GROUND PSZ-AC
! <#Nodes on Return Air Path>,<Number of Nodes>
! <Return Air Path Node>,<Node Type>,<Node Count>,<Node Name>,<AirLoopHVAC Name>
   #Nodes on Return Air Path,2
   Return Air Path Node,Outlet Node,1,NODE 188,ZONE RETAIL RETAIL C END_A - STORY GROUND PSZ-AC
   Return Air Path Node,Inlet Node,2,NODE 196,ZONE RETAIL RETAIL C END_A - STORY GROUND PSZ-AC
! ===============================================================
! #Outdoor Air Nodes,<Number of Outdoor Air Nodes>
 #Outdoor Air Nodes,18
! <Outdoor Air Node>,<NodeNumber>,<Node Name>
 Outdoor Air Node,169,NODE 226
 Outdoor Air Node,170,NODE 130
 Outdoor Air Node,171,NODE 118
 Outdoor Air Node,172,NODE 166
 Outdoor Air Node,173,NODE 94
 Outdoor Air Node,174,NODE 70
 Outdoor Air Node,175,NODE 202
 Outdoor Air Node,176,NODE 154
 Outdoor Air Node,177,NODE 250
 Outdoor Air Node,178,NODE 46
 Outdoor Air Node,179,NODE 142
 Outdoor Air Node,180,NODE 58
 Outdoor Air Node,181,NODE 178
 Outdoor Air Node,182,NODE 106
 Outdoor Air Node,183,NODE 82
 Outdoor Air Node,184,NODE 238
 Outdoor Air Node,185,NODE 214
 Outdoor Air Node,186,NODE 190
! ===============================================================
! <#Component Sets>,<Number of Component Sets>
 #Component Sets,138
! <Component Set>,<Component Set Count>,<Parent Object Type>,<Parent Object Name>,<Component Type>,<Component Name>,<Inlet Node ID>,<Outlet Node ID>,<Description>
 Component Set,1,BRANCH,ZONE RETAIL BACK_SPACE A  - STORY GROUND PSZ-AC MAIN BRANCH,AIRLOOPHVAC:OUTDOORAIRSYSTEM,ZONE RETAIL BACK_SPACE A  - STORY GROUND PSZ-AC OA SYS,NODE 221,NODE 231,Air Nodes
 Component Set,2,BRANCH,ZONE RETAIL BACK_SPACE A  - STORY GROUND PSZ-AC MAIN BRANCH,COILSYSTEM:COOLING:DX,ZONE RETAIL BACK_SPACE A  - STORY GROUND PSZ-AC 1SPD DX AC CLG COIL 6KBTU/HR 6.8EER COILSYSTEM,NODE 231,NODE 230,Air Nodes
 Component Set,3,BRANCH,ZONE RETAIL BACK_SPACE A  - STORY GROUND PSZ-AC MAIN BRANCH,COIL:HEATING:FUEL,ZONE RETAIL BACK_SPACE A  - STORY GROUND PSZ-AC GAS HTG COIL,NODE 230,NODE 229,Air Nodes
 Component Set,4,BRANCH,ZONE RETAIL BACK_SPACE A  - STORY GROUND PSZ-AC MAIN BRANCH,COIL:HEATING:ELECTRIC,ZONE RETAIL BACK_SPACE A  - STORY GROUND PSZ-AC ELECTRIC BACKUP HTG COIL,NODE 229,NODE 228,Air Nodes
 Component Set,5,BRANCH,ZONE RETAIL BACK_SPACE A  - STORY GROUND PSZ-AC MAIN BRANCH,FAN:CONSTANTVOLUME,ZONE RETAIL BACK_SPACE A  - STORY GROUND PSZ-AC FAN,NODE 228,NODE 222,Air Nodes
 Component Set,6,BRANCH,ZONE RETAIL BACK_SPACE A END_B - STORY GROUND PSZ-AC MAIN BRANCH,AIRLOOPHVAC:OUTDOORAIRSYSTEM,ZONE RETAIL BACK_SPACE A END_B - STORY GROUND PSZ-AC OA SYS,NODE 125,NODE 135,Air Nodes
 Component Set,7,BRANCH,ZONE RETAIL BACK_SPACE A END_B - STORY GROUND PSZ-AC MAIN BRANCH,COILSYSTEM:COOLING:DX,ZONE RETAIL BACK_SPACE A END_B - STORY GROUND PSZ-AC 1SPD DX AC CLG COIL 9KBTU/HR 6.8EER COILSYSTEM,NODE 135,NODE 134,Air Nodes
 Component Set,8,BRANCH,ZONE RETAIL BACK_SPACE A END_B - STORY GROUND PSZ-AC MAIN BRANCH,COIL:HEATING:FUEL,ZONE RETAIL BACK_SPACE A END_B - STORY GROUND PSZ-AC GAS HTG COIL,NODE 134,NODE 133,Air Nodes
 Component Set,9,BRANCH,ZONE RETAIL BACK_SPACE A END_B - STORY GROUND PSZ-AC MAIN BRANCH,COIL:HEATING:ELECTRIC,ZONE RETAIL BACK_SPACE A END_B - STORY GROUND PSZ-AC ELECTRIC BACKUP HTG COIL,NODE 133,NODE 132,Air Nodes
 Component Set,10,BRANCH,ZONE RETAIL BACK_SPACE A END_B - STORY GROUND PSZ-AC MAIN BRANCH,FAN:CONSTANTVOLUME,ZONE RETAIL BACK_SPACE A END_B - STORY GROUND PSZ-AC FAN,NODE 132,NODE 126,Air Nodes
 Component Set,11,BRANCH,ZONE RETAIL BACK_SPACE B  - STORY GROUND PSZ-AC MAIN BRANCH,AIRLOOPHVAC:OUTDOORAIRSYSTEM,ZONE RETAIL BACK_SPACE B  - STORY GROUND PSZ-AC OA SYS,NODE 113,NODE 123,Air Nodes
 Component Set,12,BRANCH,ZONE RETAIL BACK_SPACE B  - STORY GROUND PSZ-AC MAIN BRANCH,COILSYSTEM:COOLING:DX,ZONE RETAIL BACK_SPACE B  - STORY GROUND PSZ-AC 1SPD DX AC CLG COIL 34KBTU/HR 6.8EER COILSYSTEM,NODE 123,NODE 122,Air Nodes
 Component Set,13,BRANCH,ZONE RETAIL BACK_SPACE B  - STORY GROUND PSZ-AC MAIN BRANCH,COIL:HEATING:FUEL,ZONE RETAIL BACK_SPACE B  - STORY GROUND PSZ-AC GAS HTG COIL,NODE 122,NODE 121,Air Nodes
 Component Set,14,BRANCH,ZONE RETAIL BACK_SPACE B  - STORY GROUND PSZ-AC MAIN BRANCH,COIL:HEATING:ELECTRIC,ZONE RETAIL BACK_SPACE B  - STORY GROUND PSZ-AC ELECTRIC BACKUP HTG COIL,NODE 121,NODE 120,Air Nodes
 Component Set,15,BRANCH,ZONE RETAIL BACK_SPACE B  - STORY GROUND PSZ-AC MAIN BRANCH,FAN:CONSTANTVOLUME,ZONE RETAIL BACK_SPACE B  - STORY GROUND PSZ-AC FAN,NODE 120,NODE 114,Air Nodes
 Component Set,16,BRANCH,ZONE RETAIL BACK_SPACE B END_B - STORY GROUND PSZ-AC MAIN BRANCH,AIRLOOPHVAC:OUTDOORAIRSYSTEM,ZONE RETAIL BACK_SPACE B END_B - STORY GROUND PSZ-AC OA SYS,NODE 161,NODE 171,Air Nodes
 Component Set,17,BRANCH,ZONE RETAIL BACK_SPACE B END_B - STORY GROUND PSZ-AC MAIN BRANCH,COILSYSTEM:COOLING:DX,ZONE RETAIL BACK_SPACE B END_B - STORY GROUND PSZ-AC 1SPD DX AC CLG COIL 47KBTU/HR 6.8EER COILSYSTEM,NODE 171,NODE 170,Air Nodes
 Component Set,18,BRANCH,ZONE RETAIL BACK_SPACE B END_B - STORY GROUND PSZ-AC MAIN BRANCH,COIL:HEATING:FUEL,ZONE RETAIL BACK_SPACE B END_B - STORY GROUND PSZ-AC GAS HTG COIL,NODE 170,NODE 169,Air Nodes
 Component Set,19,BRANCH,ZONE RETAIL BACK_SPACE B END_B - STORY GROUND PSZ-AC MAIN BRANCH,COIL:HEATING:ELECTRIC,ZONE RETAIL BACK_SPACE B END_B - STORY GROUND PSZ-AC ELECTRIC BACKUP HTG COIL,NODE 169,NODE 168,Air Nodes
 Component Set,20,BRANCH,ZONE RETAIL BACK_SPACE B END_B - STORY GROUND PSZ-AC MAIN BRANCH,FAN:CONSTANTVOLUME,ZONE RETAIL BACK_SPACE B END_B - STORY GROUND PSZ-AC FAN,NODE 168,NODE 162,Air Nodes
 Component Set,21,BRANCH,ZONE RETAIL BACK_SPACE C  - STORY GROUND PSZ-AC MAIN BRANCH,AIRLOOPHVAC:OUTDOORAIRSYSTEM,ZONE RETAIL BACK_SPACE C  - STORY GROUND PSZ-AC OA SYS,NODE 89,NODE 99,Air Nodes
 Component Set,22,BRANCH,ZONE RETAIL BACK_SPACE C  - STORY GROUND PSZ-AC MAIN BRANCH,COILSYSTEM:COOLING:DX,ZONE RETAIL BACK_SPACE C  - STORY GROUND PSZ-AC 1SPD DX AC CLG COIL 4KBTU/HR 6.8EER COILSYSTEM,NODE 99,NODE 98,Air Nodes
 Component Set,23,BRANCH,ZONE RETAIL BACK_SPACE C  - STORY GROUND PSZ-AC MAIN BRANCH,COIL:HEATING:FUEL,ZONE RETAIL BACK_SPACE C  - STORY GROUND PSZ-AC GAS HTG COIL,NODE 98,NODE 97,Air Nodes
 Component Set,24,BRANCH,ZONE RETAIL BACK_SPACE C  - STORY GROUND PSZ-AC MAIN BRANCH,COIL:HEATING:ELECTRIC,ZONE RETAIL BACK_SPACE C  - STORY GROUND PSZ-AC ELECTRIC BACKUP HTG COIL,NODE 97,NODE 96,Air Nodes
 Component Set,25,BRANCH,ZONE RETAIL BACK_SPACE C  - STORY GROUND PSZ-AC MAIN BRANCH,FAN:CONSTANTVOLUME,ZONE RETAIL BACK_SPACE C  - STORY GROUND PSZ-AC FAN,NODE 96,NODE 90,Air Nodes
 Component Set,26,BRANCH,ZONE RETAIL BACK_SPACE C END_B - STORY GROUND PSZ-AC MAIN BRANCH,AIRLOOPHVAC:OUTDOORAIRSYSTEM,ZONE RETAIL BACK_SPACE C END_B - STORY GROUND PSZ-AC OA SYS,NODE 65,NODE 75,Air Nodes
 Component Set,27,BRANCH,ZONE RETAIL BACK_SPACE C END_B - STORY GROUND PSZ-AC MAIN BRANCH,COILSYSTEM:COOLING:DX,ZONE RETAIL BACK_SPACE C END_B - STORY GROUND PSZ-AC 1SPD DX AC CLG COIL 7KBTU/HR 6.8EER COILSYSTEM,NODE 75,NODE 74,Air Nodes
 Component Set,28,BRANCH,ZONE RETAIL BACK_SPACE C END_B - STORY GROUND PSZ-AC MAIN BRANCH,COIL:HEATING:FUEL,ZONE RETAIL BACK_SPACE C END_B - STORY GROUND PSZ-AC GAS HTG COIL,NODE 74,NODE 73,Air Nodes
 Component Set,29,BRANCH,ZONE RETAIL BACK_SPACE C END_B - STORY GROUND PSZ-AC MAIN BRANCH,COIL:HEATING:ELECTRIC,ZONE RETAIL BACK_SPACE C END_B - STORY GROUND PSZ-AC ELECTRIC BACKUP HTG COIL,NODE 73,NODE 72,Air Nodes
 Component Set,30,BRANCH,ZONE RETAIL BACK_SPACE C END_B - STORY GROUND PSZ-AC MAIN BRANCH,FAN:CONSTANTVOLUME,ZONE RETAIL BACK_SPACE C END_B - STORY GROUND PSZ-AC FAN,NODE 72,NODE 66,Air Nodes
 Component Set,31,BRANCH,ZONE RETAIL ENTRY A  - STORY GROUND PSZ-AC MAIN BRANCH,AIRLOOPHVAC:OUTDOORAIRSYSTEM,ZONE RETAIL ENTRY A  - STORY GROUND PSZ-AC OA SYS,NODE 197,NODE 207,Air Nodes
 Component Set,32,BRANCH,ZONE RETAIL ENTRY A  - STORY GROUND PSZ-AC MAIN BRANCH,COILSYSTEM:COOLING:DX,ZONE RETAIL ENTRY A  - STORY GROUND PSZ-AC 1SPD DX AC CLG COIL 2KBTU/HR 6.8EER COILSYSTEM,NODE 207,NODE 206,Air Nodes
 Component Set,33,BRANCH,ZONE RETAIL ENTRY A  - STORY GROUND PSZ-AC MAIN BRANCH,COIL:HEATING:FUEL,ZONE RETAIL ENTRY A  - STORY GROUND PSZ-AC GAS HTG COIL,NODE 206,NODE 205,Air Nodes
 Component Set,34,BRANCH,ZONE RETAIL ENTRY A  - STORY GROUND PSZ-AC MAIN BRANCH,COIL:HEATING:ELECTRIC,ZONE RETAIL ENTRY A  - STORY GROUND PSZ-AC ELECTRIC BACKUP HTG COIL,NODE 205,NODE 204,Air Nodes
 Component Set,35,BRANCH,ZONE RETAIL ENTRY A  - STORY GROUND PSZ-AC MAIN BRANCH,FAN:CONSTANTVOLUME,ZONE RETAIL ENTRY A  - STORY GROUND PSZ-AC FAN,NODE 204,NODE 198,Air Nodes
 Component Set,36,BRANCH,ZONE RETAIL ENTRY B  - STORY GROUND PSZ-AC MAIN BRANCH,AIRLOOPHVAC:OUTDOORAIRSYSTEM,ZONE RETAIL ENTRY B  - STORY GROUND PSZ-AC OA SYS,NODE 149,NODE 159,Air Nodes
 Component Set,37,BRANCH,ZONE RETAIL ENTRY B  - STORY GROUND PSZ-AC MAIN BRANCH,COILSYSTEM:COOLING:DX,ZONE RETAIL ENTRY B  - STORY GROUND PSZ-AC 1SPD DX AC CLG COIL 18KBTU/HR 6.8EER COILSYSTEM,NODE 159,NODE 158,Air Nodes
 Component Set,38,BRANCH,ZONE RETAIL ENTRY B  - STORY GROUND PSZ-AC MAIN BRANCH,COIL:HEATING:FUEL,ZONE RETAIL ENTRY B  - STORY GROUND PSZ-AC GAS HTG COIL,NODE 158,NODE 157,Air Nodes
 Component Set,39,BRANCH,ZONE RETAIL ENTRY B  - STORY GROUND PSZ-AC MAIN BRANCH,COIL:HEATING:ELECTRIC,ZONE RETAIL ENTRY B  - STORY GROUND PSZ-AC ELECTRIC BACKUP HTG COIL,NODE 157,NODE 156,Air Nodes
 Component Set,40,BRANCH,ZONE RETAIL ENTRY B  - STORY GROUND PSZ-AC MAIN BRANCH,FAN:CONSTANTVOLUME,ZONE RETAIL ENTRY B  - STORY GROUND PSZ-AC FAN,NODE 156,NODE 150,Air Nodes
 Component Set,41,BRANCH,ZONE RETAIL ENTRY C  - STORY GROUND PSZ-AC MAIN BRANCH,AIRLOOPHVAC:OUTDOORAIRSYSTEM,ZONE RETAIL ENTRY C  - STORY GROUND PSZ-AC OA SYS,NODE 245,NODE 255,Air Nodes
 Component Set,42,BRANCH,ZONE RETAIL ENTRY C  - STORY GROUND PSZ-AC MAIN BRANCH,COILSYSTEM:COOLING:DX,ZONE RETAIL ENTRY C  - STORY GROUND PSZ-AC 1SPD DX AC CLG COIL 3KBTU/HR 6.8EER COILSYSTEM,NODE 255,NODE 254,Air Nodes
 Component Set,43,BRANCH,ZONE RETAIL ENTRY C  - STORY GROUND PSZ-AC MAIN BRANCH,COIL:HEATING:FUEL,ZONE RETAIL ENTRY C  - STORY GROUND PSZ-AC GAS HTG COIL,NODE 254,NODE 253,Air Nodes
 Component Set,44,BRANCH,ZONE RETAIL ENTRY C  - STORY GROUND PSZ-AC MAIN BRANCH,COIL:HEATING:ELECTRIC,ZONE RETAIL ENTRY C  - STORY GROUND PSZ-AC ELECTRIC BACKUP HTG COIL,NODE 253,NODE 252,Air Nodes
 Component Set,45,BRANCH,ZONE RETAIL ENTRY C  - STORY GROUND PSZ-AC MAIN BRANCH,FAN:CONSTANTVOLUME,ZONE RETAIL ENTRY C  - STORY GROUND PSZ-AC FAN,NODE 252,NODE 246,Air Nodes
 Component Set,46,BRANCH,ZONE RETAIL POINT_OF_SALE A  - STORY GROUND PSZ-AC MAIN BRANCH,AIRLOOPHVAC:OUTDOORAIRSYSTEM,ZONE RETAIL POINT_OF_SALE A  - STORY GROUND PSZ-AC OA SYS,NODE 41,NODE 51,Air Nodes
 Component Set,47,BRANCH,ZONE RETAIL POINT_OF_SALE A  - STORY GROUND PSZ-AC MAIN BRANCH,COILSYSTEM:COOLING:DX,ZONE RETAIL POINT_OF_SALE A  - STORY GROUND PSZ-AC 1SPD DX AC CLG COIL 10KBTU/HR 6.8EER COILSYSTEM,NODE 51,NODE 50,Air Nodes
 Component Set,48,BRANCH,ZONE RETAIL POINT_OF_SALE A  - STORY GROUND PSZ-AC MAIN BRANCH,COIL:HEATING:FUEL,ZONE RETAIL POINT_OF_SALE A  - STORY GROUND PSZ-AC GAS HTG COIL,NODE 50,NODE 49,Air Nodes
 Component Set,49,BRANCH,ZONE RETAIL POINT_OF_SALE A  - STORY GROUND PSZ-AC MAIN BRANCH,COIL:HEATING:ELECTRIC,ZONE RETAIL POINT_OF_SALE A  - STORY GROUND PSZ-AC ELECTRIC BACKUP HTG COIL,NODE 49,NODE 48,Air Nodes
 Component Set,50,BRANCH,ZONE RETAIL POINT_OF_SALE A  - STORY GROUND PSZ-AC MAIN BRANCH,FAN:CONSTANTVOLUME,ZONE RETAIL POINT_OF_SALE A  - STORY GROUND PSZ-AC FAN,NODE 48,NODE 42,Air Nodes
 Component Set,51,BRANCH,ZONE RETAIL POINT_OF_SALE B  - STORY GROUND PSZ-AC MAIN BRANCH,AIRLOOPHVAC:OUTDOORAIRSYSTEM,ZONE RETAIL POINT_OF_SALE B  - STORY GROUND PSZ-AC OA SYS,NODE 137,NODE 147,Air Nodes
 Component Set,52,BRANCH,ZONE RETAIL POINT_OF_SALE B  - STORY GROUND PSZ-AC MAIN BRANCH,COILSYSTEM:COOLING:DX,ZONE RETAIL POINT_OF_SALE B  - STORY GROUND PSZ-AC 1SPD DX AC CLG COIL 63KBTU/HR 6.8EER COILSYSTEM,NODE 147,NODE 146,Air Nodes
 Component Set,53,BRANCH,ZONE RETAIL POINT_OF_SALE B  - STORY GROUND PSZ-AC MAIN BRANCH,COIL:HEATING:FUEL,ZONE RETAIL POINT_OF_SALE B  - STORY GROUND PSZ-AC GAS HTG COIL,NODE 146,NODE 145,Air Nodes
 Component Set,54,BRANCH,ZONE RETAIL POINT_OF_SALE B  - STORY GROUND PSZ-AC MAIN BRANCH,COIL:HEATING:ELECTRIC,ZONE RETAIL POINT_OF_SALE B  - STORY GROUND PSZ-AC ELECTRIC BACKUP HTG COIL,NODE 145,NODE 144,Air Nodes
 Component Set,55,BRANCH,ZONE RETAIL POINT_OF_SALE B  - STORY GROUND PSZ-AC MAIN BRANCH,FAN:CONSTANTVOLUME,ZONE RETAIL POINT_OF_SALE B  - STORY GROUND PSZ-AC FAN,NODE 144,NODE 138,Air Nodes
 Component Set,56,BRANCH,ZONE RETAIL POINT_OF_SALE C  - STORY GROUND PSZ-AC MAIN BRANCH,AIRLOOPHVAC:OUTDOORAIRSYSTEM,ZONE RETAIL POINT_OF_SALE C  - STORY GROUND PSZ-AC OA SYS,NODE 53,NODE 63,Air Nodes
 Component Set,57,BRANCH,ZONE RETAIL POINT_OF_SALE C  - STORY GROUND PSZ-AC MAIN BRANCH,COILSYSTEM:COOLING:DX,ZONE RETAIL POINT_OF_SALE C  - STORY GROUND PSZ-AC 1SPD DX AC CLG COIL 9KBTU/HR 6.8EER COILSYSTEM,NODE 63,NODE 62,Air Nodes
 Component Set,58,BRANCH,ZONE RETAIL POINT_OF_SALE C  - STORY GROUND PSZ-AC MAIN BRANCH,COIL:HEATING:FUEL,ZONE RETAIL POINT_OF_SALE C  - STORY GROUND PSZ-AC GAS HTG COIL,NODE 62,NODE 61,Air Nodes
 Component Set,59,BRANCH,ZONE RETAIL POINT_OF_SALE C  - STORY GROUND PSZ-AC MAIN BRANCH,COIL:HEATING:ELECTRIC,ZONE RETAIL POINT_OF_SALE C  - STORY GROUND PSZ-AC ELECTRIC BACKUP HTG COIL,NODE 61,NODE 60,Air Nodes
 Component Set,60,BRANCH,ZONE RETAIL POINT_OF_SALE C  - STORY GROUND PSZ-AC MAIN BRANCH,FAN:CONSTANTVOLUME,ZONE RETAIL POINT_OF_SALE C  - STORY GROUND PSZ-AC FAN,NODE 60,NODE 54,Air Nodes
 Component Set,61,BRANCH,ZONE RETAIL RETAIL A  - STORY GROUND PSZ-AC MAIN BRANCH,AIRLOOPHVAC:OUTDOORAIRSYSTEM,ZONE RETAIL RETAIL A  - STORY GROUND PSZ-AC OA SYS,NODE 173,NODE 183,Air Nodes
 Component Set,62,BRANCH,ZONE RETAIL RETAIL A  - STORY GROUND PSZ-AC MAIN BRANCH,COILSYSTEM:COOLING:DX,ZONE RETAIL RETAIL A  - STORY GROUND PSZ-AC 1SPD DX AC CLG COIL 103KBTU/HR 6.8EER COILSYSTEM,NODE 183,NODE 182,Air Nodes
 Component Set,63,BRANCH,ZONE RETAIL RETAIL A  - STORY GROUND PSZ-AC MAIN BRANCH,COIL:HEATING:FUEL,ZONE RETAIL RETAIL A  - STORY GROUND PSZ-AC GAS HTG COIL,NODE 182,NODE 181,Air Nodes
 Component Set,64,BRANCH,ZONE RETAIL RETAIL A  - STORY GROUND PSZ-AC MAIN BRANCH,COIL:HEATING:ELECTRIC,ZONE RETAIL RETAIL A  - STORY GROUND PSZ-AC ELECTRIC BACKUP HTG COIL,NODE 181,NODE 180,Air Nodes
 Component Set,65,BRANCH,ZONE RETAIL RETAIL A  - STORY GROUND PSZ-AC MAIN BRANCH,FAN:CONSTANTVOLUME,ZONE RETAIL RETAIL A  - STORY GROUND PSZ-AC FAN,NODE 180,NODE 174,Air Nodes
 Component Set,66,BRANCH,ZONE RETAIL RETAIL A END_A - STORY GROUND PSZ-AC MAIN BRANCH,AIRLOOPHVAC:OUTDOORAIRSYSTEM,ZONE RETAIL RETAIL A END_A - STORY GROUND PSZ-AC OA SYS,NODE 101,NODE 111,Air Nodes
 Component Set,67,BRANCH,ZONE RETAIL RETAIL A END_A - STORY GROUND PSZ-AC MAIN BRANCH,COILSYSTEM:COOLING:DX,ZONE RETAIL RETAIL A END_A - STORY GROUND PSZ-AC 1SPD DX AC CLG COIL 17KBTU/HR 6.8EER COILSYSTEM,NODE 111,NODE 110,Air Nodes
 Component Set,68,BRANCH,ZONE RETAIL RETAIL A END_A - STORY GROUND PSZ-AC MAIN BRANCH,COIL:HEATING:FUEL,ZONE RETAIL RETAIL A END_A - STORY GROUND PSZ-AC GAS HTG COIL,NODE 110,NODE 109,Air Nodes
 Component Set,69,BRANCH,ZONE RETAIL RETAIL A END_A - STORY GROUND PSZ-AC MAIN BRANCH,COIL:HEATING:ELECTRIC,ZONE RETAIL RETAIL A END_A - STORY GROUND PSZ-AC ELECTRIC BACKUP HTG COIL,NODE 109,NODE 108,Air Nodes
 Component Set,70,BRANCH,ZONE RETAIL RETAIL A END_A - STORY GROUND PSZ-AC MAIN BRANCH,FAN:CONSTANTVOLUME,ZONE RETAIL RETAIL A END_A - STORY GROUND PSZ-AC FAN,NODE 108,NODE 102,Air Nodes
 Component Set,71,BRANCH,ZONE RETAIL RETAIL B  - STORY GROUND PSZ-AC MAIN BRANCH,AIRLOOPHVAC:OUTDOORAIRSYSTEM,ZONE RETAIL RETAIL B  - STORY GROUND PSZ-AC OA SYS,NODE 77,NODE 87,Air Nodes
 Component Set,72,BRANCH,ZONE RETAIL RETAIL B  - STORY GROUND PSZ-AC MAIN BRANCH,COILSYSTEM:COOLING:DX,ZONE RETAIL RETAIL B  - STORY GROUND PSZ-AC 1SPD DX AC CLG COIL 626KBTU/HR 6.8EER COILSYSTEM,NODE 87,NODE 86,Air Nodes
 Component Set,73,BRANCH,ZONE RETAIL RETAIL B  - STORY GROUND PSZ-AC MAIN BRANCH,COIL:HEATING:FUEL,ZONE RETAIL RETAIL B  - STORY GROUND PSZ-AC GAS HTG COIL,NODE 86,NODE 85,Air Nodes
 Component Set,74,BRANCH,ZONE RETAIL RETAIL B  - STORY GROUND PSZ-AC MAIN BRANCH,COIL:HEATING:ELECTRIC,ZONE RETAIL RETAIL B  - STORY GROUND PSZ-AC ELECTRIC BACKUP HTG COIL,NODE 85,NODE 84,Air Nodes
 Component Set,75,BRANCH,ZONE RETAIL RETAIL B  - STORY GROUND PSZ-AC MAIN BRANCH,FAN:CONSTANTVOLUME,ZONE RETAIL RETAIL B  - STORY GROUND PSZ-AC FAN,NODE 84,NODE 78,Air Nodes
 Component Set,76,BRANCH,ZONE RETAIL RETAIL B END_A - STORY GROUND PSZ-AC MAIN BRANCH,AIRLOOPHVAC:OUTDOORAIRSYSTEM,ZONE RETAIL RETAIL B END_A - STORY GROUND PSZ-AC OA SYS,NODE 233,NODE 243,Air Nodes
 Component Set,77,BRANCH,ZONE RETAIL RETAIL B END_A - STORY GROUND PSZ-AC MAIN BRANCH,COILSYSTEM:COOLING:DX,ZONE RETAIL RETAIL B END_A - STORY GROUND PSZ-AC 1SPD DX AC CLG COIL 101KBTU/HR 6.8EER COILSYSTEM,NODE 243,NODE 242,Air Nodes
 Component Set,78,BRANCH,ZONE RETAIL RETAIL B END_A - STORY GROUND PSZ-AC MAIN BRANCH,COIL:HEATING:FUEL,ZONE RETAIL RETAIL B END_A - STORY GROUND PSZ-AC GAS HTG COIL,NODE 242,NODE 241,Air Nodes
 Component Set,79,BRANCH,ZONE RETAIL RETAIL B END_A - STORY GROUND PSZ-AC MAIN BRANCH,COIL:HEATING:ELECTRIC,ZONE RETAIL RETAIL B END_A - STORY GROUND PSZ-AC ELECTRIC BACKUP HTG COIL,NODE 241,NODE 240,Air Nodes
 Component Set,80,BRANCH,ZONE RETAIL RETAIL B END_A - STORY GROUND PSZ-AC MAIN BRANCH,FAN:CONSTANTVOLUME,ZONE RETAIL RETAIL B END_A - STORY GROUND PSZ-AC FAN,NODE 240,NODE 234,Air Nodes
 Component Set,81,BRANCH,ZONE RETAIL RETAIL C  - STORY GROUND PSZ-AC MAIN BRANCH,AIRLOOPHVAC:OUTDOORAIRSYSTEM,ZONE RETAIL RETAIL C  - STORY GROUND PSZ-AC OA SYS,NODE 209,NODE 219,Air Nodes
 Component Set,82,BRANCH,ZONE RETAIL RETAIL C  - STORY GROUND PSZ-AC MAIN BRANCH,COILSYSTEM:COOLING:DX,ZONE RETAIL RETAIL C  - STORY GROUND PSZ-AC 1SPD DX AC CLG COIL 97KBTU/HR 6.8EER COILSYSTEM,NODE 219,NODE 218,Air Nodes
 Component Set,83,BRANCH,ZONE RETAIL RETAIL C  - STORY GROUND PSZ-AC MAIN BRANCH,COIL:HEATING:FUEL,ZONE RETAIL RETAIL C  - STORY GROUND PSZ-AC GAS HTG COIL,NODE 218,NODE 217,Air Nodes
 Component Set,84,BRANCH,ZONE RETAIL RETAIL C  - STORY GROUND PSZ-AC MAIN BRANCH,COIL:HEATING:ELECTRIC,ZONE RETAIL RETAIL C  - STORY GROUND PSZ-AC ELECTRIC BACKUP HTG COIL,NODE 217,NODE 216,Air Nodes
 Component Set,85,BRANCH,ZONE RETAIL RETAIL C  - STORY GROUND PSZ-AC MAIN BRANCH,FAN:CONSTANTVOLUME,ZONE RETAIL RETAIL C  - STORY GROUND PSZ-AC FAN,NODE 216,NODE 210,Air Nodes
 Component Set,86,BRANCH,ZONE RETAIL RETAIL C END_A - STORY GROUND PSZ-AC MAIN BRANCH,AIRLOOPHVAC:OUTDOORAIRSYSTEM,ZONE RETAIL RETAIL C END_A - STORY GROUND PSZ-AC OA SYS,NODE 185,NODE 195,Air Nodes
 Component Set,87,BRANCH,ZONE RETAIL RETAIL C END_A - STORY GROUND PSZ-AC MAIN BRANCH,COILSYSTEM:COOLING:DX,ZONE RETAIL RETAIL C END_A - STORY GROUND PSZ-AC 1SPD DX AC CLG COIL 15KBTU/HR 6.8EER COILSYSTEM,NODE 195,NODE 194,Air Nodes
 Component Set,88,BRANCH,ZONE RETAIL RETAIL C END_A - STORY GROUND PSZ-AC MAIN BRANCH,COIL:HEATING:FUEL,ZONE RETAIL RETAIL C END_A - STORY GROUND PSZ-AC GAS HTG COIL,NODE 194,NODE 193,Air Nodes
 Component Set,89,BRANCH,ZONE RETAIL RETAIL C END_A - STORY GROUND PSZ-AC MAIN BRANCH,COIL:HEATING:ELECTRIC,ZONE RETAIL RETAIL C END_A - STORY GROUND PSZ-AC ELECTRIC BACKUP HTG COIL,NODE 193,NODE 192,Air Nodes
 Component Set,90,BRANCH,ZONE RETAIL RETAIL C END_A - STORY GROUND PSZ-AC MAIN BRANCH,FAN:CONSTANTVOLUME,ZONE RETAIL RETAIL C END_A - STORY GROUND PSZ-AC FAN,NODE 192,NODE 186,Air Nodes
 Component Set,91,BRANCH,RETAIL SHARED SERVICE WATER LOOP SUPPLY INLET BRANCH,PUMP:CONSTANTSPEED,SERVICE WATER LOOP PUMP,NODE 19,NODE 25,Water Nodes
 Component Set,92,BRANCH,RETAIL SHARED SERVICE WATER LOOP SUPPLY BRANCH 1,WATERHEATER:MIXED,40.0GAL GAS WATER HEATER - 15KBTU/HR 0.78 THERM EFF 0.78 THERM EFF,NODE 21,NODE 26,Use Side Water Nodes
 Component Set,93,BRANCH,RETAIL SHARED SERVICE WATER LOOP SUPPLY BRANCH 2,PIPE:ADIABATIC,PIPE ADIABATIC 1,NODE 27,NODE 28,Pipe Nodes
 Component Set,94,BRANCH,RETAIL SHARED SERVICE WATER LOOP SUPPLY OUTLET BRANCH,PIPE:ADIABATIC,PIPE ADIABATIC 3,NODE 30,NODE 20,Pipe Nodes
 Component Set,95,BRANCH,RETAIL SHARED SERVICE WATER LOOP DEMAND INLET BRANCH,PIPE:ADIABATIC,PIPE ADIABATIC 4,NODE 22,NODE 31,Pipe Nodes
 Component Set,96,BRANCH,RETAIL SHARED SERVICE WATER LOOP DEMAND BRANCH 1,PIPE:ADIABATIC,PIPE ADIABATIC 2,NODE 24,NODE 29,Pipe Nodes
 Component Set,97,BRANCH,RETAIL SHARED SERVICE WATER LOOP DEMAND BRANCH 2,WATERUSE:CONNECTIONS,RETAIL ENTRY - CEC PRE-1978 WUC,NODE 33,NODE 34,DHW Nodes
 Component Set,98,BRANCH,RETAIL SHARED SERVICE WATER LOOP DEMAND BRANCH 3,WATERUSE:CONNECTIONS,RETAIL BACK_SPACE - CEC PRE-1978 WUC,NODE 35,NODE 36,DHW Nodes
 Component Set,99,BRANCH,RETAIL SHARED SERVICE WATER LOOP DEMAND BRANCH 4,WATERUSE:CONNECTIONS,RETAIL POINT_OF_SALE - CEC PRE-1978 WUC,NODE 37,NODE 38,DHW Nodes
 Component Set,100,BRANCH,RETAIL SHARED SERVICE WATER LOOP DEMAND BRANCH 5,WATERUSE:CONNECTIONS,RETAIL RETAIL - CEC PRE-1978 WUC,NODE 39,NODE 40,DHW Nodes
 Component Set,101,BRANCH,RETAIL SHARED SERVICE WATER LOOP DEMAND BYPASS BRANCH,PIPE:ADIABATIC,RETAIL SHARED SERVICE WATER LOOP DEMAND BYPASS PIPE,RETAIL SHARED SERVICE WATER LOOP DEMAND BYPASS PIPE INLET NODE,RETAIL SHARED SERVICE WATER LOOP DEMAND BYPASS PIPE OUTLET NODE,Pipe Nodes
 Component Set,102,BRANCH,RETAIL SHARED SERVICE WATER LOOP DEMAND OUTLET BRANCH,PIPE:ADIABATIC,PIPE ADIABATIC 5,NODE 32,NODE 23,Pipe Nodes
 Component Set,103,AIRLOOPHVAC:OUTDOORAIRSYSTEM,ZONE RETAIL BACK_SPACE A  - STORY GROUND PSZ-AC OA SYS,OUTDOORAIR:MIXER,ZONE RETAIL BACK_SPACE A  - STORY GROUND PSZ-AC OA SYS OUTDOOR AIR MIXER,NODE 226,NODE 231,Air Nodes
 Component Set,104,AIRLOOPHVAC:OUTDOORAIRSYSTEM,ZONE RETAIL BACK_SPACE A END_B - STORY GROUND PSZ-AC OA SYS,OUTDOORAIR:MIXER,ZONE RETAIL BACK_SPACE A END_B - STORY GROUND PSZ-AC OA SYS OUTDOOR AIR MIXER,NODE 130,NODE 135,Air Nodes
 Component Set,105,AIRLOOPHVAC:OUTDOORAIRSYSTEM,ZONE RETAIL BACK_SPACE B  - STORY GROUND PSZ-AC OA SYS,OUTDOORAIR:MIXER,ZONE RETAIL BACK_SPACE B  - STORY GROUND PSZ-AC OA SYS OUTDOOR AIR MIXER,NODE 118,NODE 123,Air Nodes
 Component Set,106,AIRLOOPHVAC:OUTDOORAIRSYSTEM,ZONE RETAIL BACK_SPACE B END_B - STORY GROUND PSZ-AC OA SYS,OUTDOORAIR:MIXER,ZONE RETAIL BACK_SPACE B END_B - STORY GROUND PSZ-AC OA SYS OUTDOOR AIR MIXER,NODE 166,NODE 171,Air Nodes
 Component Set,107,AIRLOOPHVAC:OUTDOORAIRSYSTEM,ZONE RETAIL BACK_SPACE C  - STORY GROUND PSZ-AC OA SYS,OUTDOORAIR:MIXER,ZONE RETAIL BACK_SPACE C  - STORY GROUND PSZ-AC OA SYS OUTDOOR AIR MIXER,NODE 94,NODE 99,Air Nodes
 Component Set,108,AIRLOOPHVAC:OUTDOORAIRSYSTEM,ZONE RETAIL BACK_SPACE C END_B - STORY GROUND PSZ-AC OA SYS,OUTDOORAIR:MIXER,ZONE RETAIL BACK_SPACE C END_B - STORY GROUND PSZ-AC OA SYS OUTDOOR AIR MIXER,NODE 70,NODE 75,Air Nodes
 Component Set,109,AIRLOOPHVAC:OUTDOORAIRSYSTEM,ZONE RETAIL ENTRY A  - STORY GROUND PSZ-AC OA SYS,OUTDOORAIR:MIXER,ZONE RETAIL ENTRY A  - STORY GROUND PSZ-AC OA SYS OUTDOOR AIR MIXER,NODE 202,NODE 207,Air Nodes
 Component Set,110,AIRLOOPHVAC:OUTDOORAIRSYSTEM,ZONE RETAIL ENTRY B  - STORY GROUND PSZ-AC OA SYS,OUTDOORAIR:MIXER,ZONE RETAIL ENTRY B  - STORY GROUND PSZ-AC OA SYS OUTDOOR AIR MIXER,NODE 154,NODE 159,Air Nodes
 Component Set,111,AIRLOOPHVAC:OUTDOORAIRSYSTEM,ZONE RETAIL ENTRY C  - STORY GROUND PSZ-AC OA SYS,OUTDOORAIR:MIXER,ZONE RETAIL ENTRY C  - STORY GROUND PSZ-AC OA SYS OUTDOOR AIR MIXER,NODE 250,NODE 255,Air Nodes
 Component Set,112,AIRLOOPHVAC:OUTDOORAIRSYSTEM,ZONE RETAIL POINT_OF_SALE A  - STORY GROUND PSZ-AC OA SYS,OUTDOORAIR:MIXER,ZONE RETAIL POINT_OF_SALE A  - STORY GROUND PSZ-AC OA SYS OUTDOOR AIR MIXER,NODE 46,NODE 51,Air Nodes
 Component Set,113,AIRLOOPHVAC:OUTDOORAIRSYSTEM,ZONE RETAIL POINT_OF_SALE B  - STORY GROUND PSZ-AC OA SYS,OUTDOORAIR:MIXER,ZONE RETAIL POINT_OF_SALE B  - STORY GROUND PSZ-AC OA SYS OUTDOOR AIR MIXER,NODE 142,NODE 147,Air Nodes
 Component Set,114,AIRLOOPHVAC:OUTDOORAIRSYSTEM,ZONE RETAIL POINT_OF_SALE C  - STORY GROUND PSZ-AC OA SYS,OUTDOORAIR:MIXER,ZONE RETAIL POINT_OF_SALE C  - STORY GROUND PSZ-AC OA SYS OUTDOOR AIR MIXER,NODE 58,NODE 63,Air Nodes
 Component Set,115,AIRLOOPHVAC:OUTDOORAIRSYSTEM,ZONE RETAIL RETAIL A  - STORY GROUND PSZ-AC OA SYS,OUTDOORAIR:MIXER,ZONE RETAIL RETAIL A  - STORY GROUND PSZ-AC OA SYS OUTDOOR AIR MIXER,NODE 178,NODE 183,Air Nodes
 Component Set,116,AIRLOOPHVAC:OUTDOORAIRSYSTEM,ZONE RETAIL RETAIL A END_A - STORY GROUND PSZ-AC OA SYS,OUTDOORAIR:MIXER,ZONE RETAIL RETAIL A END_A - STORY GROUND PSZ-AC OA SYS OUTDOOR AIR MIXER,NODE 106,NODE 111,Air Nodes
 Component Set,117,AIRLOOPHVAC:OUTDOORAIRSYSTEM,ZONE RETAIL RETAIL B  - STORY GROUND PSZ-AC OA SYS,OUTDOORAIR:MIXER,ZONE RETAIL RETAIL B  - STORY GROUND PSZ-AC OA SYS OUTDOOR AIR MIXER,NODE 82,NODE 87,Air Nodes
 Component Set,118,AIRLOOPHVAC:OUTDOORAIRSYSTEM,ZONE RETAIL RETAIL B END_A - STORY GROUND PSZ-AC OA SYS,OUTDOORAIR:MIXER,ZONE RETAIL RETAIL B END_A - STORY GROUND PSZ-AC OA SYS OUTDOOR AIR MIXER,NODE 238,NODE 243,Air Nodes
 Component Set,119,AIRLOOPHVAC:OUTDOORAIRSYSTEM,ZONE RETAIL RETAIL C  - STORY GROUND PSZ-AC OA SYS,OUTDOORAIR:MIXER,ZONE RETAIL RETAIL C  - STORY GROUND PSZ-AC OA SYS OUTDOOR AIR MIXER,NODE 214,NODE 219,Air Nodes
 Component Set,120,AIRLOOPHVAC:OUTDOORAIRSYSTEM,ZONE RETAIL RETAIL C END_A - STORY GROUND PSZ-AC OA SYS,OUTDOORAIR:MIXER,ZONE RETAIL RETAIL C END_A - STORY GROUND PSZ-AC OA SYS OUTDOOR AIR MIXER,NODE 190,NODE 195,Air Nodes
 Component Set,121,COILSYSTEM:COOLING:DX,ZONE RETAIL BACK_SPACE A  - STORY GROUND PSZ-AC 1SPD DX AC CLG COIL 6KBTU/HR 6.8EER COILSYSTEM,COIL:COOLING:DX:SINGLESPEED,ZONE RETAIL BACK_SPACE A  - STORY GROUND PSZ-AC 1SPD DX AC CLG COIL 6KBTU/HR 6.8EER,NODE 231,NODE 230,Air Nodes
 Component Set,122,COILSYSTEM:COOLING:DX,ZONE RETAIL BACK_SPACE A END_B - STORY GROUND PSZ-AC 1SPD DX AC CLG COIL 9KBTU/HR 6.8EER COILSYSTEM,COIL:COOLING:DX:SINGLESPEED,ZONE RETAIL BACK_SPACE A END_B - STORY GROUND PSZ-AC 1SPD DX AC CLG COIL 9KBTU/HR 6.8EER,NODE 135,NODE 134,Air Nodes
 Component Set,123,COILSYSTEM:COOLING:DX,ZONE RETAIL BACK_SPACE B  - STORY GROUND PSZ-AC 1SPD DX AC CLG COIL 34KBTU/HR 6.8EER COILSYSTEM,COIL:COOLING:DX:SINGLESPEED,ZONE RETAIL BACK_SPACE B  - STORY GROUND PSZ-AC 1SPD DX AC CLG COIL 34KBTU/HR 6.8EER,NODE 123,NODE 122,Air Nodes
 Component Set,124,COILSYSTEM:COOLING:DX,ZONE RETAIL BACK_SPACE B END_B - STORY GROUND PSZ-AC 1SPD DX AC CLG COIL 47KBTU/HR 6.8EER COILSYSTEM,COIL:COOLING:DX:SINGLESPEED,ZONE RETAIL BACK_SPACE B END_B - STORY GROUND PSZ-AC 1SPD DX AC CLG COIL 47KBTU/HR 6.8EER,NODE 171,NODE 170,Air Nodes
 Component Set,125,COILSYSTEM:COOLING:DX,ZONE RETAIL BACK_SPACE C  - STORY GROUND PSZ-AC 1SPD DX AC CLG COIL 4KBTU/HR 6.8EER COILSYSTEM,COIL:COOLING:DX:SINGLESPEED,ZONE RETAIL BACK_SPACE C  - STORY GROUND PSZ-AC 1SPD DX AC CLG COIL 4KBTU/HR 6.8EER,NODE 99,NODE 98,Air Nodes
 Component Set,126,COILSYSTEM:COOLING:DX,ZONE RETAIL BACK_SPACE C END_B - STORY GROUND PSZ-AC 1SPD DX AC CLG COIL 7KBTU/HR 6.8EER COILSYSTEM,COIL:COOLING:DX:SINGLESPEED,ZONE RETAIL BACK_SPACE C END_B - STORY GROUND PSZ-AC 1SPD DX AC CLG COIL 7KBTU/HR 6.8EER,NODE 75,NODE 74,Air Nodes
 Component Set,127,COILSYSTEM:COOLING:DX,ZONE RETAIL ENTRY A  - STORY GROUND PSZ-AC 1SPD DX AC CLG COIL 2KBTU/HR 6.8EER COILSYSTEM,COIL:COOLING:DX:SINGLESPEED,ZONE RETAIL ENTRY A  - STORY GROUND PSZ-AC 1SPD DX AC CLG COIL 2KBTU/HR 6.8EER,NODE 207,NODE 206,Air Nodes
 Component Set,128,COILSYSTEM:COOLING:DX,ZONE RETAIL ENTRY B  - STORY GROUND PSZ-AC 1SPD DX AC CLG COIL 18KBTU/HR 6.8EER COILSYSTEM,COIL:COOLING:DX:SINGLESPEED,ZONE RETAIL ENTRY B  - STORY GROUND PSZ-AC 1SPD DX AC CLG COIL 18KBTU/HR 6.8EER,NODE 159,NODE 158,Air Nodes
 Component Set,129,COILSYSTEM:COOLING:DX,ZONE RETAIL ENTRY C  - STORY GROUND PSZ-AC 1SPD DX AC CLG COIL 3KBTU/HR 6.8EER COILSYSTEM,COIL:COOLING:DX:SINGLESPEED,ZONE RETAIL ENTRY C  - STORY GROUND PSZ-AC 1SPD DX AC CLG COIL 3KBTU/HR 6.8EER,NODE 255,NODE 254,Air Nodes
 Component Set,130,COILSYSTEM:COOLING:DX,ZONE RETAIL POINT_OF_SALE A  - STORY GROUND PSZ-AC 1SPD DX AC CLG COIL 10KBTU/HR 6.8EER COILSYSTEM,COIL:COOLING:DX:SINGLESPEED,ZONE RETAIL POINT_OF_SALE A  - STORY GROUND PSZ-AC 1SPD DX AC CLG COIL 10KBTU/HR 6.8EER,NODE 51,NODE 50,Air Nodes
 Component Set,131,COILSYSTEM:COOLING:DX,ZONE RETAIL POINT_OF_SALE B  - STORY GROUND PSZ-AC 1SPD DX AC CLG COIL 63KBTU/HR 6.8EER COILSYSTEM,COIL:COOLING:DX:SINGLESPEED,ZONE RETAIL POINT_OF_SALE B  - STORY GROUND PSZ-AC 1SPD DX AC CLG COIL 63KBTU/HR 6.8EER,NODE 147,NODE 146,Air Nodes
 Component Set,132,COILSYSTEM:COOLING:DX,ZONE RETAIL POINT_OF_SALE C  - STORY GROUND PSZ-AC 1SPD DX AC CLG COIL 9KBTU/HR 6.8EER COILSYSTEM,COIL:COOLING:DX:SINGLESPEED,ZONE RETAIL POINT_OF_SALE C  - STORY GROUND PSZ-AC 1SPD DX AC CLG COIL 9KBTU/HR 6.8EER,NODE 63,NODE 62,Air Nodes
 Component Set,133,COILSYSTEM:COOLING:DX,ZONE RETAIL RETAIL A  - STORY GROUND PSZ-AC 1SPD DX AC CLG COIL 103KBTU/HR 6.8EER COILSYSTEM,COIL:COOLING:DX:SINGLESPEED,ZONE RETAIL RETAIL A  - STORY GROUND PSZ-AC 1SPD DX AC CLG COIL 103KBTU/HR 6.8EER,NODE 183,NODE 182,Air Nodes
 Component Set,134,COILSYSTEM:COOLING:DX,ZONE RETAIL RETAIL A END_A - STORY GROUND PSZ-AC 1SPD DX AC CLG COIL 17KBTU/HR 6.8EER COILSYSTEM,COIL:COOLING:DX:SINGLESPEED,ZONE RETAIL RETAIL A END_A - STORY GROUND PSZ-AC 1SPD DX AC CLG COIL 17KBTU/HR 6.8EER,NODE 111,NODE 110,Air Nodes
 Component Set,135,COILSYSTEM:COOLING:DX,ZONE RETAIL RETAIL B  - STORY GROUND PSZ-AC 1SPD DX AC CLG COIL 626KBTU/HR 6.8EER COILSYSTEM,COIL:COOLING:DX:SINGLESPEED,ZONE RETAIL RETAIL B  - STORY GROUND PSZ-AC 1SPD DX AC CLG COIL 626KBTU/HR 6.8EER,NODE 87,NODE 86,Air Nodes
 Component Set,136,COILSYSTEM:COOLING:DX,ZONE RETAIL RETAIL B END_A - STORY GROUND PSZ-AC 1SPD DX AC CLG COIL 101KBTU/HR 6.8EER COILSYSTEM,COIL:COOLING:DX:SINGLESPEED,ZONE RETAIL RETAIL B END_A - STORY GROUND PSZ-AC 1SPD DX AC CLG COIL 101KBTU/HR 6.8EER,NODE 243,NODE 242,Air Nodes
 Component Set,137,COILSYSTEM:COOLING:DX,ZONE RETAIL RETAIL C  - STORY GROUND PSZ-AC 1SPD DX AC CLG COIL 97KBTU/HR 6.8EER COILSYSTEM,COIL:COOLING:DX:SINGLESPEED,ZONE RETAIL RETAIL C  - STORY GROUND PSZ-AC 1SPD DX AC CLG COIL 97KBTU/HR 6.8EER,NODE 219,NODE 218,Air Nodes
 Component Set,138,COILSYSTEM:COOLING:DX,ZONE RETAIL RETAIL C END_A - STORY GROUND PSZ-AC 1SPD DX AC CLG COIL 15KBTU/HR 6.8EER COILSYSTEM,COIL:COOLING:DX:SINGLESPEED,ZONE RETAIL RETAIL C END_A - STORY GROUND PSZ-AC 1SPD DX AC CLG COIL 15KBTU/HR 6.8EER,NODE 195,NODE 194,Air Nodes
! ===============================================================
! <# Plant Loops>,<Number of Plant Loops>
 #Plant Loops,1
! <Plant Loop>,<Plant Loop Name>,<Loop Type>,<Inlet Node Name>,<Outlet Node Name>,<Branch List>,<Connector List>
! <Plant Loop Connector>,<Connector Type>,<Connector Name>,<Loop Name>,<Loop Type>,<Number of Inlets/Outlets>
! <Plant Loop Connector Branches>,<Connector Node Count>,<Connector Type>,<Connector Name>,<Inlet Branch>,<Outlet Branch>,<Loop Name>,<Loop Type>
! <Plant Loop Connector Nodes>,<Connector Node Count>,<Connector Type>,<Connector Name>,<Inlet Node>,<Outlet Node>,<Loop Name>,<Loop Type>
! <Plant Loop Supply Connection>,<Plant Loop Name>,<Supply Side Outlet Node Name>,<Demand Side Inlet Node Name>
! <Plant Loop Return Connection>,<Plant Loop Name>,<Demand Side Outlet Node Name>,<Supply Side Inlet Node Name>
 Plant Loop,RETAIL SHARED SERVICE WATER LOOP,Demand,NODE 22,NODE 23,RETAIL SHARED SERVICE WATER LOOP DEMAND BRANCHES,RETAIL SHARED SERVICE WATER LOOP DEMAND CONNECTOR LIST
   Plant Loop Connector,Splitter,RETAIL SHARED SERVICE WATER LOOP DEMAND SPLITTER,RETAIL SHARED SERVICE WATER LOOP,Demand,6
     Plant Loop Connector Branches,1,Splitter,RETAIL SHARED SERVICE WATER LOOP DEMAND SPLITTER,RETAIL SHARED SERVICE WATER LOOP DEMAND INLET BRANCH,RETAIL SHARED SERVICE WATER LOOP DEMAND BRANCH 1,RETAIL SHARED SERVICE WATER LOOP,Demand
     Plant Loop Connector Nodes,   1,Splitter,RETAIL SHARED SERVICE WATER LOOP DEMAND SPLITTER,NODE 31,NODE 24,RETAIL SHARED SERVICE WATER LOOP,Demand
     Plant Loop Connector Branches,2,Splitter,RETAIL SHARED SERVICE WATER LOOP DEMAND SPLITTER,RETAIL SHARED SERVICE WATER LOOP DEMAND INLET BRANCH,RETAIL SHARED SERVICE WATER LOOP DEMAND BRANCH 2,RETAIL SHARED SERVICE WATER LOOP,Demand
     Plant Loop Connector Nodes,   2,Splitter,RETAIL SHARED SERVICE WATER LOOP DEMAND SPLITTER,NODE 31,NODE 33,RETAIL SHARED SERVICE WATER LOOP,Demand
     Plant Loop Connector Branches,3,Splitter,RETAIL SHARED SERVICE WATER LOOP DEMAND SPLITTER,RETAIL SHARED SERVICE WATER LOOP DEMAND INLET BRANCH,RETAIL SHARED SERVICE WATER LOOP DEMAND BRANCH 3,RETAIL SHARED SERVICE WATER LOOP,Demand
     Plant Loop Connector Nodes,   3,Splitter,RETAIL SHARED SERVICE WATER LOOP DEMAND SPLITTER,NODE 31,NODE 35,RETAIL SHARED SERVICE WATER LOOP,Demand
     Plant Loop Connector Branches,4,Splitter,RETAIL SHARED SERVICE WATER LOOP DEMAND SPLITTER,RETAIL SHARED SERVICE WATER LOOP DEMAND INLET BRANCH,RETAIL SHARED SERVICE WATER LOOP DEMAND BRANCH 4,RETAIL SHARED SERVICE WATER LOOP,Demand
     Plant Loop Connector Nodes,   4,Splitter,RETAIL SHARED SERVICE WATER LOOP DEMAND SPLITTER,NODE 31,NODE 37,RETAIL SHARED SERVICE WATER LOOP,Demand
     Plant Loop Connector Branches,5,Splitter,RETAIL SHARED SERVICE WATER LOOP DEMAND SPLITTER,RETAIL SHARED SERVICE WATER LOOP DEMAND INLET BRANCH,RETAIL SHARED SERVICE WATER LOOP DEMAND BRANCH 5,RETAIL SHARED SERVICE WATER LOOP,Demand
     Plant Loop Connector Nodes,   5,Splitter,RETAIL SHARED SERVICE WATER LOOP DEMAND SPLITTER,NODE 31,NODE 39,RETAIL SHARED SERVICE WATER LOOP,Demand
     Plant Loop Connector Branches,6,Splitter,RETAIL SHARED SERVICE WATER LOOP DEMAND SPLITTER,RETAIL SHARED SERVICE WATER LOOP DEMAND INLET BRANCH,RETAIL SHARED SERVICE WATER LOOP DEMAND BYPASS BRANCH,RETAIL SHARED SERVICE WATER LOOP,Demand
     Plant Loop Connector Nodes,   6,Splitter,RETAIL SHARED SERVICE WATER LOOP DEMAND SPLITTER,NODE 31,RETAIL SHARED SERVICE WATER LOOP DEMAND BYPASS PIPE INLET NODE,RETAIL SHARED SERVICE WATER LOOP,Demand
   Plant Loop Connector,Mixer,RETAIL SHARED SERVICE WATER LOOP DEMAND MIXER,RETAIL SHARED SERVICE WATER LOOP,Demand,6
[...]
 Non-Parent Node Connection,NODE 135,COIL:COOLING:DX:SINGLESPEED,ZONE RETAIL BACK_SPACE A END_B - STORY GROUND PSZ-AC 1SPD DX AC CLG COIL 9KBTU/HR 6.8EER,Inlet,1
 Non-Parent Node Connection,NODE 134,COIL:COOLING:DX:SINGLESPEED,ZONE RETAIL BACK_SPACE A END_B - STORY GROUND PSZ-AC 1SPD DX AC CLG COIL 9KBTU/HR 6.8EER,Outlet,1
 Non-Parent Node Connection,NODE 123,COIL:COOLING:DX:SINGLESPEED,ZONE RETAIL BACK_SPACE B  - STORY GROUND PSZ-AC 1SPD DX AC CLG COIL 34KBTU/HR 6.8EER,Inlet,1
 Non-Parent Node Connection,NODE 122,COIL:COOLING:DX:SINGLESPEED,ZONE RETAIL BACK_SPACE B  - STORY GROUND PSZ-AC 1SPD DX AC CLG COIL 34KBTU/HR 6.8EER,Outlet,1
 Non-Parent Node Connection,NODE 171,COIL:COOLING:DX:SINGLESPEED,ZONE RETAIL BACK_SPACE B END_B - STORY GROUND PSZ-AC 1SPD DX AC CLG COIL 47KBTU/HR 6.8EER,Inlet,1
 Non-Parent Node Connection,NODE 170,COIL:COOLING:DX:SINGLESPEED,ZONE RETAIL BACK_SPACE B END_B - STORY GROUND PSZ-AC 1SPD DX AC CLG COIL 47KBTU/HR 6.8EER,Outlet,1
 Non-Parent Node Connection,NODE 99,COIL:COOLING:DX:SINGLESPEED,ZONE RETAIL BACK_SPACE C  - STORY GROUND PSZ-AC 1SPD DX AC CLG COIL 4KBTU/HR 6.8EER,Inlet,1
 Non-Parent Node Connection,NODE 98,COIL:COOLING:DX:SINGLESPEED,ZONE RETAIL BACK_SPACE C  - STORY GROUND PSZ-AC 1SPD DX AC CLG COIL 4KBTU/HR 6.8EER,Outlet,1
 Non-Parent Node Connection,NODE 75,COIL:COOLING:DX:SINGLESPEED,ZONE RETAIL BACK_SPACE C END_B - STORY GROUND PSZ-AC 1SPD DX AC CLG COIL 7KBTU/HR 6.8EER,Inlet,1
 Non-Parent Node Connection,NODE 74,COIL:COOLING:DX:SINGLESPEED,ZONE RETAIL BACK_SPACE C END_B - STORY GROUND PSZ-AC 1SPD DX AC CLG COIL 7KBTU/HR 6.8EER,Outlet,1
 Non-Parent Node Connection,NODE 207,COIL:COOLING:DX:SINGLESPEED,ZONE RETAIL ENTRY A  - STORY GROUND PSZ-AC 1SPD DX AC CLG COIL 2KBTU/HR 6.8EER,Inlet,1
 Non-Parent Node Connection,NODE 206,COIL:COOLING:DX:SINGLESPEED,ZONE RETAIL ENTRY A  - STORY GROUND PSZ-AC 1SPD DX AC CLG COIL 2KBTU/HR 6.8EER,Outlet,1
 Non-Parent Node Connection,NODE 159,COIL:COOLING:DX:SINGLESPEED,ZONE RETAIL ENTRY B  - STORY GROUND PSZ-AC 1SPD DX AC CLG COIL 18KBTU/HR 6.8EER,Inlet,1
 Non-Parent Node Connection,NODE 158,COIL:COOLING:DX:SINGLESPEED,ZONE RETAIL ENTRY B  - STORY GROUND PSZ-AC 1SPD DX AC CLG COIL 18KBTU/HR 6.8EER,Outlet,1
 Non-Parent Node Connection,NODE 255,COIL:COOLING:DX:SINGLESPEED,ZONE RETAIL ENTRY C  - STORY GROUND PSZ-AC 1SPD DX AC CLG COIL 3KBTU/HR 6.8EER,Inlet,1
 Non-Parent Node Connection,NODE 254,COIL:COOLING:DX:SINGLESPEED,ZONE RETAIL ENTRY C  - STORY GROUND PSZ-AC 1SPD DX AC CLG COIL 3KBTU/HR 6.8EER,Outlet,1
 Non-Parent Node Connection,NODE 51,COIL:COOLING:DX:SINGLESPEED,ZONE RETAIL POINT_OF_SALE A  - STORY GROUND PSZ-AC 1SPD DX AC CLG COIL 10KBTU/HR 6.8EER,Inlet,1
 Non-Parent Node Connection,NODE 50,COIL:COOLING:DX:SINGLESPEED,ZONE RETAIL POINT_OF_SALE A  - STORY GROUND PSZ-AC 1SPD DX AC CLG COIL 10KBTU/HR 6.8EER,Outlet,1
 Non-Parent Node Connection,NODE 147,COIL:COOLING:DX:SINGLESPEED,ZONE RETAIL POINT_OF_SALE B  - STORY GROUND PSZ-AC 1SPD DX AC CLG COIL 63KBTU/HR 6.8EER,Inlet,1
 Non-Parent Node Connection,NODE 146,COIL:COOLING:DX:SINGLESPEED,ZONE RETAIL POINT_OF_SALE B  - STORY GROUND PSZ-AC 1SPD DX AC CLG COIL 63KBTU/HR 6.8EER,Outlet,1
 Non-Parent Node Connection,NODE 63,COIL:COOLING:DX:SINGLESPEED,ZONE RETAIL POINT_OF_SALE C  - STORY GROUND PSZ-AC 1SPD DX AC CLG COIL 9KBTU/HR 6.8EER,Inlet,1
 Non-Parent Node Connection,NODE 62,COIL:COOLING:DX:SINGLESPEED,ZONE RETAIL POINT_OF_SALE C  - STORY GROUND PSZ-AC 1SPD DX AC CLG COIL 9KBTU/HR 6.8EER,Outlet,1
 Non-Parent Node Connection,NODE 183,COIL:COOLING:DX:SINGLESPEED,ZONE RETAIL RETAIL A  - STORY GROUND PSZ-AC 1SPD DX AC CLG COIL 103KBTU/HR 6.8EER,Inlet,1
 Non-Parent Node Connection,NODE 182,COIL:COOLING:DX:SINGLESPEED,ZONE RETAIL RETAIL A  - STORY GROUND PSZ-AC 1SPD DX AC CLG COIL 103KBTU/HR 6.8EER,Outlet,1
 Non-Parent Node Connection,NODE 111,COIL:COOLING:DX:SINGLESPEED,ZONE RETAIL RETAIL A END_A - STORY GROUND PSZ-AC 1SPD DX AC CLG COIL 17KBTU/HR 6.8EER,Inlet,1
 Non-Parent Node Connection,NODE 110,COIL:COOLING:DX:SINGLESPEED,ZONE RETAIL RETAIL A END_A - STORY GROUND PSZ-AC 1SPD DX AC CLG COIL 17KBTU/HR 6.8EER,Outlet,1
 Non-Parent Node Connection,NODE 87,COIL:COOLING:DX:SINGLESPEED,ZONE RETAIL RETAIL B  - STORY GROUND PSZ-AC 1SPD DX AC CLG COIL 626KBTU/HR 6.8EER,Inlet,1
 Non-Parent Node Connection,NODE 86,COIL:COOLING:DX:SINGLESPEED,ZONE RETAIL RETAIL B  - STORY GROUND PSZ-AC 1SPD DX AC CLG COIL 626KBTU/HR 6.8EER,Outlet,1
 Non-Parent Node Connection,NODE 243,COIL:COOLING:DX:SINGLESPEED,ZONE RETAIL RETAIL B END_A - STORY GROUND PSZ-AC 1SPD DX AC CLG COIL 101KBTU/HR 6.8EER,Inlet,1
 Non-Parent Node Connection,NODE 242,COIL:COOLING:DX:SINGLESPEED,ZONE RETAIL RETAIL B END_A - STORY GROUND PSZ-AC 1SPD DX AC CLG COIL 101KBTU/HR 6.8EER,Outlet,1
 Non-Parent Node Connection,NODE 219,COIL:COOLING:DX:SINGLESPEED,ZONE RETAIL RETAIL C  - STORY GROUND PSZ-AC 1SPD DX AC CLG COIL 97KBTU/HR 6.8EER,Inlet,1
 Non-Parent Node Connection,NODE 218,COIL:COOLING:DX:SINGLESPEED,ZONE RETAIL RETAIL C  - STORY GROUND PSZ-AC 1SPD DX AC CLG COIL 97KBTU/HR 6.8EER,Outlet,1
 Non-Parent Node Connection,NODE 195,COIL:COOLING:DX:SINGLESPEED,ZONE RETAIL RETAIL C END_A - STORY GROUND PSZ-AC 1SPD DX AC CLG COIL 15KBTU/HR 6.8EER,Inlet,1
 Non-Parent Node Connection,NODE 194,COIL:COOLING:DX:SINGLESPEED,ZONE RETAIL RETAIL C END_A - STORY GROUND PSZ-AC 1SPD DX AC CLG COIL 15KBTU/HR 6.8EER,Outlet,1
 Non-Parent Node Connection,NODE 229,COIL:HEATING:ELECTRIC,ZONE RETAIL BACK_SPACE A  - STORY GROUND PSZ-AC ELECTRIC BACKUP HTG COIL,Inlet,1
 Non-Parent Node Connection,NODE 228,COIL:HEATING:ELECTRIC,ZONE RETAIL BACK_SPACE A  - STORY GROUND PSZ-AC ELECTRIC BACKUP HTG COIL,Outlet,1
 Non-Parent Node Connection,NODE 228,COIL:HEATING:ELECTRIC,ZONE RETAIL BACK_SPACE A  - STORY GROUND PSZ-AC ELECTRIC BACKUP HTG COIL,Sensor,1
 Non-Parent Node Connection,NODE 133,COIL:HEATING:ELECTRIC,ZONE RETAIL BACK_SPACE A END_B - STORY GROUND PSZ-AC ELECTRIC BACKUP HTG COIL,Inlet,1
 Non-Parent Node Connection,NODE 132,COIL:HEATING:ELECTRIC,ZONE RETAIL BACK_SPACE A END_B - STORY GROUND PSZ-AC ELECTRIC BACKUP HTG COIL,Outlet,1
 Non-Parent Node Connection,NODE 132,COIL:HEATING:ELECTRIC,ZONE RETAIL BACK_SPACE A END_B - STORY GROUND PSZ-AC ELECTRIC BACKUP HTG COIL,Sensor,1
 Non-Parent Node Connection,NODE 121,COIL:HEATING:ELECTRIC,ZONE RETAIL BACK_SPACE B  - STORY GROUND PSZ-AC ELECTRIC BACKUP HTG COIL,Inlet,1
 Non-Parent Node Connection,NODE 120,COIL:HEATING:ELECTRIC,ZONE RETAIL BACK_SPACE B  - STORY GROUND PSZ-AC ELECTRIC BACKUP HTG COIL,Outlet,1
 Non-Parent Node Connection,NODE 120,COIL:HEATING:ELECTRIC,ZONE RETAIL BACK_SPACE B  - STORY GROUND PSZ-AC ELECTRIC BACKUP HTG COIL,Sensor,1
 Non-Parent Node Connection,NODE 169,COIL:HEATING:ELECTRIC,ZONE RETAIL BACK_SPACE B END_B - STORY GROUND PSZ-AC ELECTRIC BACKUP HTG COIL,Inlet,1
 Non-Parent Node Connection,NODE 168,COIL:HEATING:ELECTRIC,ZONE RETAIL BACK_SPACE B END_B - STORY GROUND PSZ-AC ELECTRIC BACKUP HTG COIL,Outlet,1
 Non-Parent Node Connection,NODE 168,COIL:HEATING:ELECTRIC,ZONE RETAIL BACK_SPACE B END_B - STORY GROUND PSZ-AC ELECTRIC BACKUP HTG COIL,Sensor,1
 Non-Parent Node Connection,NODE 97,COIL:HEATING:ELECTRIC,ZONE RETAIL BACK_SPACE C  - STORY GROUND PSZ-AC ELECTRIC BACKUP HTG COIL,Inlet,1
 Non-Parent Node Connection,NODE 96,COIL:HEATING:ELECTRIC,ZONE RETAIL BACK_SPACE C  - STORY GROUND PSZ-AC ELECTRIC BACKUP HTG COIL,Outlet,1
 Non-Parent Node Connection,NODE 96,COIL:HEATING:ELECTRIC,ZONE RETAIL BACK_SPACE C  - STORY GROUND PSZ-AC ELECTRIC BACKUP HTG COIL,Sensor,1
 Non-Parent Node Connection,NODE 73,COIL:HEATING:ELECTRIC,ZONE RETAIL BACK_SPACE C END_B - STORY GROUND PSZ-AC ELECTRIC BACKUP HTG COIL,Inlet,1
 Non-Parent Node Connection,NODE 72,COIL:HEATING:ELECTRIC,ZONE RETAIL BACK_SPACE C END_B - STORY GROUND PSZ-AC ELECTRIC BACKUP HTG COIL,Outlet,1
 Non-Parent Node Connection,NODE 72,COIL:HEATING:ELECTRIC,ZONE RETAIL BACK_SPACE C END_B - STORY GROUND PSZ-AC ELECTRIC BACKUP HTG COIL,Sensor,1
 Non-Parent Node Connection,NODE 205,COIL:HEATING:ELECTRIC,ZONE RETAIL ENTRY A  - STORY GROUND PSZ-AC ELECTRIC BACKUP HTG COIL,Inlet,1
 Non-Parent Node Connection,NODE 204,COIL:HEATING:ELECTRIC,ZONE RETAIL ENTRY A  - STORY GROUND PSZ-AC ELECTRIC BACKUP HTG COIL,Outlet,1
 Non-Parent Node Connection,NODE 204,COIL:HEATING:ELECTRIC,ZONE RETAIL ENTRY A  - STORY GROUND PSZ-AC ELECTRIC BACKUP HTG COIL,Sensor,1
 Non-Parent Node Connection,NODE 157,COIL:HEATING:ELECTRIC,ZONE RETAIL ENTRY B  - STORY GROUND PSZ-AC ELECTRIC BACKUP HTG COIL,Inlet,1
 Non-Parent Node Connection,NODE 156,COIL:HEATING:ELECTRIC,ZONE RETAIL ENTRY B  - STORY GROUND PSZ-AC ELECTRIC BACKUP HTG COIL,Outlet,1
 Non-Parent Node Connection,NODE 156,COIL:HEATING:ELECTRIC,ZONE RETAIL ENTRY B  - STORY GROUND PSZ-AC ELECTRIC BACKUP HTG COIL,Sensor,1
 Non-Parent Node Connection,NODE 253,COIL:HEATING:ELECTRIC,ZONE RETAIL ENTRY C  - STORY GROUND PSZ-AC ELECTRIC BACKUP HTG COIL,Inlet,1
 Non-Parent Node Connection,NODE 252,COIL:HEATING:ELECTRIC,ZONE RETAIL ENTRY C  - STORY GROUND PSZ-AC ELECTRIC BACKUP HTG COIL,Outlet,1
 Non-Parent Node Connection,NODE 252,COIL:HEATING:ELECTRIC,ZONE RETAIL ENTRY C  - STORY GROUND PSZ-AC ELECTRIC BACKUP HTG COIL,Sensor,1
 Non-Parent Node Connection,NODE 49,COIL:HEATING:ELECTRIC,ZONE RETAIL POINT_OF_SALE A  - STORY GROUND PSZ-AC ELECTRIC BACKUP HTG COIL,Inlet,1
 Non-Parent Node Connection,NODE 48,COIL:HEATING:ELECTRIC,ZONE RETAIL POINT_OF_SALE A  - STORY GROUND PSZ-AC ELECTRIC BACKUP HTG COIL,Outlet,1
 Non-Parent Node Connection,NODE 48,COIL:HEATING:ELECTRIC,ZONE RETAIL POINT_OF_SALE A  - STORY GROUND PSZ-AC ELECTRIC BACKUP HTG COIL,Sensor,1
 Non-Parent Node Connection,NODE 145,COIL:HEATING:ELECTRIC,ZONE RETAIL POINT_OF_SALE B  - STORY GROUND PSZ-AC ELECTRIC BACKUP HTG COIL,Inlet,1
 Non-Parent Node Connection,NODE 144,COIL:HEATING:ELECTRIC,ZONE RETAIL POINT_OF_SALE B  - STORY GROUND PSZ-AC ELECTRIC BACKUP HTG COIL,Outlet,1
 Non-Parent Node Connection,NODE 144,COIL:HEATING:ELECTRIC,ZONE RETAIL POINT_OF_SALE B  - STORY GROUND PSZ-AC ELECTRIC BACKUP HTG COIL,Sensor,1
 Non-Parent Node Connection,NODE 61,COIL:HEATING:ELECTRIC,ZONE RETAIL POINT_OF_SALE C  - STORY GROUND PSZ-AC ELECTRIC BACKUP HTG COIL,Inlet,1
 Non-Parent Node Connection,NODE 60,COIL:HEATING:ELECTRIC,ZONE RETAIL POINT_OF_SALE C  - STORY GROUND PSZ-AC ELECTRIC BACKUP HTG COIL,Outlet,1
 Non-Parent Node Connection,NODE 60,COIL:HEATING:ELECTRIC,ZONE RETAIL POINT_OF_SALE C  - STORY GROUND PSZ-AC ELECTRIC BACKUP HTG COIL,Sensor,1
 Non-Parent Node Connection,NODE 181,COIL:HEATING:ELECTRIC,ZONE RETAIL RETAIL A  - STORY GROUND PSZ-AC ELECTRIC BACKUP HTG COIL,Inlet,1
 Non-Parent Node Connection,NODE 180,COIL:HEATING:ELECTRIC,ZONE RETAIL RETAIL A  - STORY GROUND PSZ-AC ELECTRIC BACKUP HTG COIL,Outlet,1
 Non-Parent Node Connection,NODE 180,COIL:HEATING:ELECTRIC,ZONE RETAIL RETAIL A  - STORY GROUND PSZ-AC ELECTRIC BACKUP HTG COIL,Sensor,1
 Non-Parent Node Connection,NODE 109,COIL:HEATING:ELECTRIC,ZONE RETAIL RETAIL A END_A - STORY GROUND PSZ-AC ELECTRIC BACKUP HTG COIL,Inlet,1
 Non-Parent Node Connection,NODE 108,COIL:HEATING:ELECTRIC,ZONE RETAIL RETAIL A END_A - STORY GROUND PSZ-AC ELECTRIC BACKUP HTG COIL,Outlet,1
 Non-Parent Node Connection,NODE 108,COIL:HEATING:ELECTRIC,ZONE RETAIL RETAIL A END_A - STORY GROUND PSZ-AC ELECTRIC BACKUP HTG COIL,Sensor,1
 Non-Parent Node Connection,NODE 85,COIL:HEATING:ELECTRIC,ZONE RETAIL RETAIL B  - STORY GROUND PSZ-AC ELECTRIC BACKUP HTG COIL,Inlet,1
 Non-Parent Node Connection,NODE 84,COIL:HEATING:ELECTRIC,ZONE RETAIL RETAIL B  - STORY GROUND PSZ-AC ELECTRIC BACKUP HTG COIL,Outlet,1
 Non-Parent Node Connection,NODE 84,COIL:HEATING:ELECTRIC,ZONE RETAIL RETAIL B  - STORY GROUND PSZ-AC ELECTRIC BACKUP HTG COIL,Sensor,1
 Non-Parent Node Connection,NODE 241,COIL:HEATING:ELECTRIC,ZONE RETAIL RETAIL B END_A - STORY GROUND PSZ-AC ELECTRIC BACKUP HTG COIL,Inlet,1
 Non-Parent Node Connection,NODE 240,COIL:HEATING:ELECTRIC,ZONE RETAIL RETAIL B END_A - STORY GROUND PSZ-AC ELECTRIC BACKUP HTG COIL,Outlet,1
 Non-Parent Node Connection,NODE 240,COIL:HEATING:ELECTRIC,ZONE RETAIL RETAIL B END_A - STORY GROUND PSZ-AC ELECTRIC BACKUP HTG COIL,Sensor,1
 Non-Parent Node Connection,NODE 217,COIL:HEATING:ELECTRIC,ZONE RETAIL RETAIL C  - STORY GROUND PSZ-AC ELECTRIC BACKUP HTG COIL,Inlet,1
 Non-Parent Node Connection,NODE 216,COIL:HEATING:ELECTRIC,ZONE RETAIL RETAIL C  - STORY GROUND PSZ-AC ELECTRIC BACKUP HTG COIL,Outlet,1
 Non-Parent Node Connection,NODE 216,COIL:HEATING:ELECTRIC,ZONE RETAIL RETAIL C  - STORY GROUND PSZ-AC ELECTRIC BACKUP HTG COIL,Sensor,1
 Non-Parent Node Connection,NODE 193,COIL:HEATING:ELECTRIC,ZONE RETAIL RETAIL C END_A - STORY GROUND PSZ-AC ELECTRIC BACKUP HTG COIL,Inlet,1
 Non-Parent Node Connection,NODE 192,COIL:HEATING:ELECTRIC,ZONE RETAIL RETAIL C END_A - STORY GROUND PSZ-AC ELECTRIC BACKUP HTG COIL,Outlet,1
 Non-Parent Node Connection,NODE 192,COIL:HEATING:ELECTRIC,ZONE RETAIL RETAIL C END_A - STORY GROUND PSZ-AC ELECTRIC BACKUP HTG COIL,Sensor,1
 Non-Parent Node Connection,NODE 230,COIL:HEATING:FUEL,ZONE RETAIL BACK_SPACE A  - STORY GROUND PSZ-AC GAS HTG COIL,Inlet,1
 Non-Parent Node Connection,NODE 229,COIL:HEATING:FUEL,ZONE RETAIL BACK_SPACE A  - STORY GROUND PSZ-AC GAS HTG COIL,Outlet,1
 Non-Parent Node Connection,NODE 229,COIL:HEATING:FUEL,ZONE RETAIL BACK_SPACE A  - STORY GROUND PSZ-AC GAS HTG COIL,Sensor,1
 Non-Parent Node Connection,NODE 134,COIL:HEATING:FUEL,ZONE RETAIL BACK_SPACE A END_B - STORY GROUND PSZ-AC GAS HTG COIL,Inlet,1
 Non-Parent Node Connection,NODE 133,COIL:HEATING:FUEL,ZONE RETAIL BACK_SPACE A END_B - STORY GROUND PSZ-AC GAS HTG COIL,Outlet,1
 Non-Parent Node Connection,NODE 133,COIL:HEATING:FUEL,ZONE RETAIL BACK_SPACE A END_B - STORY GROUND PSZ-AC GAS HTG COIL,Sensor,1
 Non-Parent Node Connection,NODE 122,COIL:HEATING:FUEL,ZONE RETAIL BACK_SPACE B  - STORY GROUND PSZ-AC GAS HTG COIL,Inlet,1
 Non-Parent Node Connection,NODE 121,COIL:HEATING:FUEL,ZONE RETAIL BACK_SPACE B  - STORY GROUND PSZ-AC GAS HTG COIL,Outlet,1
 Non-Parent Node Connection,NODE 121,COIL:HEATING:FUEL,ZONE RETAIL BACK_SPACE B  - STORY GROUND PSZ-AC GAS HTG COIL,Sensor,1
 Non-Parent Node Connection,NODE 170,COIL:HEATING:FUEL,ZONE RETAIL BACK_SPACE B END_B - STORY GROUND PSZ-AC GAS HTG COIL,Inlet,1
 Non-Parent Node Connection,NODE 169,COIL:HEATING:FUEL,ZONE RETAIL BACK_SPACE B END_B - STORY GROUND PSZ-AC GAS HTG COIL,Outlet,1
 Non-Parent Node Connection,NODE 169,COIL:HEATING:FUEL,ZONE RETAIL BACK_SPACE B END_B - STORY GROUND PSZ-AC GAS HTG COIL,Sensor,1
 Non-Parent Node Connection,NODE 98,COIL:HEATING:FUEL,ZONE RETAIL BACK_SPACE C  - STORY GROUND PSZ-AC GAS HTG COIL,Inlet,1
 Non-Parent Node Connection,NODE 97,COIL:HEATING:FUEL,ZONE RETAIL BACK_SPACE C  - STORY GROUND PSZ-AC GAS HTG COIL,Outlet,1
 Non-Parent Node Connection,NODE 97,COIL:HEATING:FUEL,ZONE RETAIL BACK_SPACE C  - STORY GROUND PSZ-AC GAS HTG COIL,Sensor,1
 Non-Parent Node Connection,NODE 74,COIL:HEATING:FUEL,ZONE RETAIL BACK_SPACE C END_B - STORY GROUND PSZ-AC GAS HTG COIL,Inlet,1
 Non-Parent Node Connection,NODE 73,COIL:HEATING:FUEL,ZONE RETAIL BACK_SPACE C END_B - STORY GROUND PSZ-AC GAS HTG COIL,Outlet,1
 Non-Parent Node Connection,NODE 73,COIL:HEATING:FUEL,ZONE RETAIL BACK_SPACE C END_B - STORY GROUND PSZ-AC GAS HTG COIL,Sensor,1
 Non-Parent Node Connection,NODE 206,COIL:HEATING:FUEL,ZONE RETAIL ENTRY A  - STORY GROUND PSZ-AC GAS HTG COIL,Inlet,1
 Non-Parent Node Connection,NODE 205,COIL:HEATING:FUEL,ZONE RETAIL ENTRY A  - STORY GROUND PSZ-AC GAS HTG COIL,Outlet,1
 Non-Parent Node Connection,NODE 205,COIL:HEATING:FUEL,ZONE RETAIL ENTRY A  - STORY GROUND PSZ-AC GAS HTG COIL,Sensor,1
 Non-Parent Node Connection,NODE 158,COIL:HEATING:FUEL,ZONE RETAIL ENTRY B  - STORY GROUND PSZ-AC GAS HTG COIL,Inlet,1
 Non-Parent Node Connection,NODE 157,COIL:HEATING:FUEL,ZONE RETAIL ENTRY B  - STORY GROUND PSZ-AC GAS HTG COIL,Outlet,1
 Non-Parent Node Connection,NODE 157,COIL:HEATING:FUEL,ZONE RETAIL ENTRY B  - STORY GROUND PSZ-AC GAS HTG COIL,Sensor,1
 Non-Parent Node Connection,NODE 254,COIL:HEATING:FUEL,ZONE RETAIL ENTRY C  - STORY GROUND PSZ-AC GAS HTG COIL,Inlet,1
 Non-Parent Node Connection,NODE 253,COIL:HEATING:FUEL,ZONE RETAIL ENTRY C  - STORY GROUND PSZ-AC GAS HTG COIL,Outlet,1
 Non-Parent Node Connection,NODE 253,COIL:HEATING:FUEL,ZONE RETAIL ENTRY C  - STORY GROUND PSZ-AC GAS HTG COIL,Sensor,1
 Non-Parent Node Connection,NODE 50,COIL:HEATING:FUEL,ZONE RETAIL POINT_OF_SALE A  - STORY GROUND PSZ-AC GAS HTG COIL,Inlet,1
 Non-Parent Node Connection,NODE 49,COIL:HEATING:FUEL,ZONE RETAIL POINT_OF_SALE A  - STORY GROUND PSZ-AC GAS HTG COIL,Outlet,1
 Non-Parent Node Connection,NODE 49,COIL:HEATING:FUEL,ZONE RETAIL POINT_OF_SALE A  - STORY GROUND PSZ-AC GAS HTG COIL,Sensor,1
 Non-Parent Node Connection,NODE 146,COIL:HEATING:FUEL,ZONE RETAIL POINT_OF_SALE B  - STORY GROUND PSZ-AC GAS HTG COIL,Inlet,1
 Non-Parent Node Connection,NODE 145,COIL:HEATING:FUEL,ZONE RETAIL POINT_OF_SALE B  - STORY GROUND PSZ-AC GAS HTG COIL,Outlet,1
 Non-Parent Node Connection,NODE 145,COIL:HEATING:FUEL,ZONE RETAIL POINT_OF_SALE B  - STORY GROUND PSZ-AC GAS HTG COIL,Sensor,1
 Non-Parent Node Connection,NODE 62,COIL:HEATING:FUEL,ZONE RETAIL POINT_OF_SALE C  - STORY GROUND PSZ-AC GAS HTG COIL,Inlet,1
 Non-Parent Node Connection,NODE 61,COIL:HEATING:FUEL,ZONE RETAIL POINT_OF_SALE C  - STORY GROUND PSZ-AC GAS HTG COIL,Outlet,1
 Non-Parent Node Connection,NODE 61,COIL:HEATING:FUEL,ZONE RETAIL POINT_OF_SALE C  - STORY GROUND PSZ-AC GAS HTG COIL,Sensor,1
 Non-Parent Node Connection,NODE 182,COIL:HEATING:FUEL,ZONE RETAIL RETAIL A  - STORY GROUND PSZ-AC GAS HTG COIL,Inlet,1
 Non-Parent Node Connection,NODE 181,COIL:HEATING:FUEL,ZONE RETAIL RETAIL A  - STORY GROUND PSZ-AC GAS HTG COIL,Outlet,1
 Non-Parent Node Connection,NODE 181,COIL:HEATING:FUEL,ZONE RETAIL RETAIL A  - STORY GROUND PSZ-AC GAS HTG COIL,Sensor,1
 Non-Parent Node Connection,NODE 110,COIL:HEATING:FUEL,ZONE RETAIL RETAIL A END_A - STORY GROUND PSZ-AC GAS HTG COIL,Inlet,1
 Non-Parent Node Connection,NODE 109,COIL:HEATING:FUEL,ZONE RETAIL RETAIL A END_A - STORY GROUND PSZ-AC GAS HTG COIL,Outlet,1
 Non-Parent Node Connection,NODE 109,COIL:HEATING:FUEL,ZONE RETAIL RETAIL A END_A - STORY GROUND PSZ-AC GAS HTG COIL,Sensor,1
 Non-Parent Node Connection,NODE 86,COIL:HEATING:FUEL,ZONE RETAIL RETAIL B  - STORY GROUND PSZ-AC GAS HTG COIL,Inlet,1
 Non-Parent Node Connection,NODE 85,COIL:HEATING:FUEL,ZONE RETAIL RETAIL B  - STORY GROUND PSZ-AC GAS HTG COIL,Outlet,1
 Non-Parent Node Connection,NODE 85,COIL:HEATING:FUEL,ZONE RETAIL RETAIL B  - STORY GROUND PSZ-AC GAS HTG COIL,Sensor,1
 Non-Parent Node Connection,NODE 242,COIL:HEATING:FUEL,ZONE RETAIL RETAIL B END_A - STORY GROUND PSZ-AC GAS HTG COIL,Inlet,1
 Non-Parent Node Connection,NODE 241,COIL:HEATING:FUEL,ZONE RETAIL RETAIL B END_A - STORY GROUND PSZ-AC GAS HTG COIL,Outlet,1
 Non-Parent Node Connection,NODE 241,COIL:HEATING:FUEL,ZONE RETAIL RETAIL B END_A - STORY GROUND PSZ-AC GAS HTG COIL,Sensor,1
 Non-Parent Node Connection,NODE 218,COIL:HEATING:FUEL,ZONE RETAIL RETAIL C  - STORY GROUND PSZ-AC GAS HTG COIL,Inlet,1
 Non-Parent Node Connection,NODE 217,COIL:HEATING:FUEL,ZONE RETAIL RETAIL C  - STORY GROUND PSZ-AC GAS HTG COIL,Outlet,1
 Non-Parent Node Connection,NODE 217,COIL:HEATING:FUEL,ZONE RETAIL RETAIL C  - STORY GROUND PSZ-AC GAS HTG COIL,Sensor,1
 Non-Parent Node Connection,NODE 194,COIL:HEATING:FUEL,ZONE RETAIL RETAIL C END_A - STORY GROUND PSZ-AC GAS HTG COIL,Inlet,1
 Non-Parent Node Connection,NODE 193,COIL:HEATING:FUEL,ZONE RETAIL RETAIL C END_A - STORY GROUND PSZ-AC GAS HTG COIL,Outlet,1
 Non-Parent Node Connection,NODE 193,COIL:HEATING:FUEL,ZONE RETAIL RETAIL C END_A - STORY GROUND PSZ-AC GAS HTG COIL,Sensor,1
 Non-Parent Node Connection,NODE 19,PUMP:CONSTANTSPEED,SERVICE WATER LOOP PUMP,Inlet,1
 Non-Parent Node Connection,NODE 25,PUMP:CONSTANTSPEED,SERVICE WATER LOOP PUMP,Outlet,1
