Program Version,EnergyPlus, Version 8.7.0-78a111df4a, YMD=2018.03.01 18:55
! <Version>, Version ID
 Version, 8.7
! <Timesteps per Hour>, #TimeSteps, Minutes per TimeStep {minutes}
 Timesteps per Hour,  4, 15
! <System Convergence Limits>, Minimum System TimeStep {minutes}, Max HVAC Iterations, Minimum Plant Iterations, Maximum Plant Iterations
 System Convergence Limits, 1, 20, 2, 8
! <Simulation Control>, Do Zone Sizing, Do System Sizing, Do Plant Sizing, Do Design Days, Do Weather Simulation, Do HVAC Sizing Simulation
 Simulation Control, Yes, Yes, Yes, No, Yes, No
! <Output Reporting Tolerances>, Tolerance for Time Heating Setpoint Not Met, Tolerance for Zone Cooling Setpoint Not Met Time
 Output Reporting Tolerances, 0.200, 0.200, 
! <Site:GroundTemperature:BuildingSurface>,Jan{C},Feb{C},Mar{C},Apr{C},May{C},Jun{C},Jul{C},Aug{C},Sep{C},Oct{C},Nov{C},Dec{C}
 Site:GroundTemperature:BuildingSurface,  18.00,  18.00,  18.00,  18.00,  18.00,  18.00,  18.00,  18.00,  18.00,  18.00,  18.00,  18.00
! <Site:GroundTemperature:FCfactorMethod>,Jan{C},Feb{C},Mar{C},Apr{C},May{C},Jun{C},Jul{C},Aug{C},Sep{C},Oct{C},Nov{C},Dec{C}
 Site:GroundTemperature:FCfactorMethod,  10.94,  10.63,  11.18,  12.06,  14.33,  16.09,  17.28,  17.64,  17.02,  15.66,  13.83,  12.14
! <Site:GroundTemperature:Shallow>,Jan{C},Feb{C},Mar{C},Apr{C},May{C},Jun{C},Jul{C},Aug{C},Sep{C},Oct{C},Nov{C},Dec{C}
 Site:GroundTemperature:Shallow,  13.00,  13.00,  13.00,  13.00,  13.00,  13.00,  13.00,  13.00,  13.00,  13.00,  13.00,  13.00
! <Site:GroundTemperature:Deep>,Jan{C},Feb{C},Mar{C},Apr{C},May{C},Jun{C},Jul{C},Aug{C},Sep{C},Oct{C},Nov{C},Dec{C}
 Site:GroundTemperature:Deep,  16.00,  16.00,  16.00,  16.00,  16.00,  16.00,  16.00,  16.00,  16.00,  16.00,  16.00,  16.00
! <Site:GroundReflectance>,Jan{dimensionless},Feb{dimensionless},Mar{dimensionless},Apr{dimensionless},May{dimensionless},Jun{dimensionless},Jul{dimensionless},Aug{dimensionless},Sep{dimensionless},Oct{dimensionless},Nov{dimensionless},Dec{dimensionless}
 Site:GroundReflectance,  0.20,  0.20,  0.20,  0.20,  0.20,  0.20,  0.20,  0.20,  0.20,  0.20,  0.20,  0.20
! <Site:GroundReflectance:SnowModifier>, Normal, Daylighting {dimensionless}
 Site:GroundReflectance:SnowModifier,   1.000,   1.000
! <Site:GroundReflectance:Snow>,Jan{dimensionless},Feb{dimensionless},Mar{dimensionless},Apr{dimensionless},May{dimensionless},Jun{dimensionless},Jul{dimensionless},Aug{dimensionless},Sep{dimensionless},Oct{dimensionless},Nov{dimensionless},Dec{dimensionless}
 Site:GroundReflectance:Snow,  0.20,  0.20,  0.20,  0.20,  0.20,  0.20,  0.20,  0.20,  0.20,  0.20,  0.20,  0.20
! <Site:GroundReflectance:Snow:Daylighting>,Jan{dimensionless},Feb{dimensionless},Mar{dimensionless},Apr{dimensionless},May{dimensionless},Jun{dimensionless},Jul{dimensionless},Aug{dimensionless},Sep{dimensionless},Oct{dimensionless},Nov{dimensionless},Dec{dimensionless}
 Site:GroundReflectance:Snow:Daylighting,  0.20,  0.20,  0.20,  0.20,  0.20,  0.20,  0.20,  0.20,  0.20,  0.20,  0.20,  0.20
! <Environment:Weather Station>,Wind Sensor Height Above Ground {m},Wind Speed Profile Exponent {},Wind Speed Profile Boundary Layer Thickness {m},Air Temperature Sensor Height Above Ground {m},Wind Speed Modifier Coefficient-Internal,Temperature Modifier Coefficient-Internal
Environment:Weather Station,10.000,0.140,270.000,1.500,1.586,9.750E-003
! <Site:Location>, Location Name, Latitude {N+/S- Deg}, Longitude {E+/W- Deg},  Time Zone Number {GMT+/-}, Elevation {m},  Standard Pressure at Elevation {Pa}, Standard RhoAir at Elevation
Site:Location,Climate Zone 3 CA USA CTZRV2 WMO#=724930,37.70,-122.20,-8.00,2.00,101301,1.2040
! <Building Information>, Building Name,North Axis {deg},Terrain,  Loads Convergence Tolerance Value,Temperature Convergence Tolerance Value,  Solar Distribution,Maximum Number of Warmup Days,Minimum Number of Warmup Days
 Building Information,CEC Pre-1978|MediumOffice,0.000,Suburbs,4.00000E-002,0.40000,FullExterior,25,6
! <Inside Convection Algorithm>, Algorithm {Simple | TARP | CeilingDiffuser | AdaptiveConvectionAlgorithm}
Inside Convection Algorithm,TARP
! <Outside Convection Algorithm>, Algorithm {SimpleCombined | TARP | MoWitt | DOE-2 | AdaptiveConvectionAlgorithm}
Outside Convection Algorithm,DOE-2
! <Sky Radiance Distribution>, Value {Anisotropic}
Sky Radiance Distribution,Anisotropic
! <Zone Air Solution Algorithm>, Value {ThirdOrderBackwardDifference | AnalyticalSolution | EulerMethod}
 Zone Air Solution Algorithm, ThirdOrderBackwardDifference
! <Zone Air Carbon Dioxide Balance Simulation>, Simulation {Yes/No}, Carbon Dioxide Concentration
 Zone Air Carbon Dioxide Balance Simulation, No,N/A
! <Zone Air Generic Contaminant Balance Simulation>, Simulation {Yes/No}, Generic Contaminant Concentration
 Zone Air Generic Contaminant Balance Simulation, No,N/A
! <Zone Air Mass Flow Balance Simulation>, Enforce Mass Balance, Adjust Zone Mixing, Adjust Zone Infiltration {AddInfiltration | AdjustInfiltration | None}, Infiltration Zones {MixingSourceZonesOnly | AllZones}
 Zone Air Mass Flow Balance Simulation, No,N/A,N/A,N/A
! <Environment:Site Atmospheric Variation>,Wind Speed Profile Exponent {},Wind Speed Profile Boundary Layer Thickness {m},Air Temperature Gradient Coefficient {K/m}
Environment:Site Atmospheric Variation,0.220,370.000,6.500000E-003
! <Surface Geometry>,Starting Corner,Vertex Input Direction,Coordinate System,Daylight Reference Point Coordinate System,Rectangular (Simple) Surface Coordinate System
 Surface Geometry,UpperLeftCorner,Counterclockwise,RelativeCoordinateSystem,RelativeCoordinateSystem,RelativeToZoneOrigin
! <Surface Heat Transfer Algorithm>, Value {CTF - ConductionTransferFunction | EMPD - MoisturePenetrationDepthConductionTransferFunction | CondFD - ConductionFiniteDifference | HAMT - CombinedHeatAndMoistureFiniteElement} - Description,Inside Surface Max Temperature Limit{C}, Surface Convection Coefficient Lower Limit {W/m2-K}, Surface Convection Coefficient Upper Limit {W/m2-K}
Surface Heat Transfer Algorithm, CTF - ConductionTransferFunction,200,0.10,1000.0
! <Shading Summary>, Number of Fixed Detached Shades, Number of Building Detached Shades, Number of Attached Shades
 Shading Summary,0,0,0
! <Zone Summary>, Number of Zones, Number of Zone Surfaces, Number of SubSurfaces
 Zone Summary,15,102,12
! <Zone Information>,Zone Name,North Axis {deg},Origin X-Coordinate {m},Origin Y-Coordinate {m},Origin Z-Coordinate {m},Centroid X-Coordinate {m},Centroid Y-Coordinate {m},Centroid Z-Coordinate {m},Type,Zone Multiplier,Zone List Multiplier,Minimum X {m},Maximum X {m},Minimum Y {m},Maximum Y {m},Minimum Z {m},Maximum Z {m},Ceiling Height {m},Volume {m3},Zone Inside Convection Algorithm {Simple-Detailed-CeilingDiffuser-TrombeWall},Zone Outside Convection Algorithm {Simple-Detailed-Tarp-MoWitt-DOE-2-BLAST}, Floor Area {m2},Exterior Gross Wall Area {m2},Exterior Net Wall Area {m2},Exterior Window Area {m2}, Number of Surfaces, Number of SubSurfaces, Number of Shading SubSurfaces,  Part of Total Building Area
 Zone Information, ZONE CORE SPACE - STORY GROUND,0.0,-20.38,-12.06,0.00,1.42E-014,-2.35E-014,1.98,1,1,1,-20.38,20.38,-12.06,12.06,0.00,3.96,3.96,3895.94,TARP,DOE-2,983.23,0.00,0.00,0.00,6,0,0,Yes
 Zone Information, ZONE CORE SPACE - STORY MID,0.0,-20.38,-12.06,3.96,1.42E-014,-2.35E-014,5.94,1,1,1,-20.38,20.38,-12.06,12.06,3.96,7.92,3.96,3895.94,TARP,DOE-2,983.23,0.00,0.00,0.00,6,0,0,Yes
 Zone Information, ZONE CORE SPACE - STORY TOP,0.0,-20.38,-12.06,7.92,1.42E-014,-2.35E-014,9.91,1,1,1,-20.38,20.38,-12.06,12.06,7.92,11.89,3.96,3895.94,TARP,DOE-2,983.23,0.00,0.00,0.00,6,0,0,Yes
 Zone Information, ZONE EAST PERIMETER SPACE - STORY GROUND,0.0,24.95,16.63,0.00,22.88,2.27E-014,1.98,1,1,1,20.38,24.95,-16.63,16.63,0.00,3.96,3.96,519.85,TARP,DOE-2,131.20,131.82,88.32,43.50,6,1,0,Yes
 Zone Information, ZONE EAST PERIMETER SPACE - STORY MID,0.0,24.95,16.63,3.96,22.88,2.33E-014,5.94,1,1,1,20.38,24.95,-16.63,16.63,3.96,7.92,3.96,519.85,TARP,DOE-2,131.20,131.82,88.32,43.50,6,1,0,Yes
 Zone Information, ZONE EAST PERIMETER SPACE - STORY TOP,0.0,24.95,16.63,7.92,22.88,2.30E-014,9.91,1,1,1,20.38,24.95,-16.63,16.63,7.92,11.89,3.96,519.85,TARP,DOE-2,131.20,131.82,88.32,43.50,6,1,0,Yes
 Zone Information, ZONE NORTH PERIMETER SPACE - STORY GROUND,0.0,-24.95,16.63,0.00,1.55E-014,14.49,1.98,1,1,1,-24.95,24.95,12.06,16.63,0.00,3.96,3.96,821.20,TARP,DOE-2,207.25,197.73,132.48,65.25,6,1,0,Yes
 Zone Information, ZONE NORTH PERIMETER SPACE - STORY MID,0.0,-24.95,16.63,3.96,1.56E-014,14.49,5.94,1,1,1,-24.95,24.95,12.06,16.63,3.96,7.92,3.96,821.20,TARP,DOE-2,207.25,197.73,132.48,65.25,6,1,0,Yes
 Zone Information, ZONE NORTH PERIMETER SPACE - STORY TOP,0.0,-24.95,16.63,7.92,1.51E-014,14.49,9.91,1,1,1,-24.95,24.95,12.06,16.63,7.92,11.89,3.96,821.20,TARP,DOE-2,207.25,197.73,132.48,65.25,6,1,0,Yes
 Zone Information, ZONE SOUTH PERIMETER SPACE - STORY GROUND,0.0,24.95,-16.63,0.00,-1.55E-014,-14.49,1.98,1,1,1,-24.95,24.95,-16.63,-12.06,0.00,3.96,3.96,821.20,TARP,DOE-2,207.25,197.73,132.48,65.25,6,1,0,Yes
 Zone Information, ZONE SOUTH PERIMETER SPACE - STORY MID,0.0,24.95,-16.63,3.96,-1.56E-014,-14.49,5.94,1,1,1,-24.95,24.95,-16.63,-12.06,3.96,7.92,3.96,821.20,TARP,DOE-2,207.25,197.73,132.48,65.25,6,1,0,Yes
 Zone Information, ZONE SOUTH PERIMETER SPACE - STORY TOP,0.0,24.95,-16.63,7.92,-1.51E-014,-14.49,9.91,1,1,1,-24.95,24.95,-16.63,-12.06,7.92,11.89,3.96,821.20,TARP,DOE-2,207.25,197.73,132.48,65.25,6,1,0,Yes
 Zone Information, ZONE WEST PERIMETER SPACE - STORY GROUND,0.0,-24.95,-16.63,0.00,-22.88,-2.27E-014,1.98,1,1,1,-24.95,-20.38,-16.63,16.63,0.00,3.96,3.96,519.85,TARP,DOE-2,131.20,131.82,88.32,43.50,6,1,0,Yes
 Zone Information, ZONE WEST PERIMETER SPACE - STORY MID,0.0,-24.95,-16.63,3.96,-22.88,-2.33E-014,5.94,1,1,1,-24.95,-20.38,-16.63,16.63,3.96,7.92,3.96,519.85,TARP,DOE-2,131.20,131.82,88.32,43.50,6,1,0,Yes
 Zone Information, ZONE WEST PERIMETER SPACE - STORY TOP,0.0,-24.95,-16.63,7.92,-22.88,-2.30E-014,9.91,1,1,1,-24.95,-20.38,-16.63,16.63,7.92,11.89,3.96,519.85,TARP,DOE-2,131.20,131.82,88.32,43.50,6,1,0,Yes
! <Zone Internal Gains Nominal>,Zone Name, Floor Area {m2},# Occupants,Area per Occupant {m2/person},Occupant per Area {person/m2},Interior Lighting {W/m2},Electric Load {W/m2},Gas Load {W/m2},Other Load {W/m2},Hot Water Eq {W/m2},Steam Equipment {W/m2},Sum Loads per Area {W/m2},Outdoor Controlled Baseboard Heat
 Zone Internal Gains Nominal, ZONE CORE SPACE - STORY GROUND,983.23,105.8,9.290,0.108,21.420,14.639,0.000,0.000,0.000,0.000,36.059,No
 Zone Internal Gains Nominal, ZONE CORE SPACE - STORY MID,983.23,105.8,9.290,0.108,21.420,14.639,0.000,0.000,0.000,0.000,36.059,No
 Zone Internal Gains Nominal, ZONE CORE SPACE - STORY TOP,983.23,105.8,9.290,0.108,21.420,14.639,0.000,0.000,0.000,0.000,36.059,No
 Zone Internal Gains Nominal, ZONE EAST PERIMETER SPACE - STORY GROUND,131.20,14.1,9.290,0.108,21.420,14.639,0.000,0.000,0.000,0.000,36.059,No
 Zone Internal Gains Nominal, ZONE EAST PERIMETER SPACE - STORY MID,131.20,14.1,9.290,0.108,21.420,14.639,0.000,0.000,0.000,0.000,36.059,No
 Zone Internal Gains Nominal, ZONE EAST PERIMETER SPACE - STORY TOP,131.20,14.1,9.290,0.108,21.420,14.639,0.000,0.000,0.000,0.000,36.059,No
 Zone Internal Gains Nominal, ZONE NORTH PERIMETER SPACE - STORY GROUND,207.25,22.3,9.290,0.108,21.420,14.639,0.000,0.000,0.000,0.000,36.059,No
 Zone Internal Gains Nominal, ZONE NORTH PERIMETER SPACE - STORY MID,207.25,22.3,9.290,0.108,21.420,14.639,0.000,0.000,0.000,0.000,36.059,No
 Zone Internal Gains Nominal, ZONE NORTH PERIMETER SPACE - STORY TOP,207.25,22.3,9.290,0.108,21.420,14.639,0.000,0.000,0.000,0.000,36.059,No
 Zone Internal Gains Nominal, ZONE SOUTH PERIMETER SPACE - STORY GROUND,207.25,22.3,9.290,0.108,21.420,14.639,0.000,0.000,0.000,0.000,36.059,No
 Zone Internal Gains Nominal, ZONE SOUTH PERIMETER SPACE - STORY MID,207.25,22.3,9.290,0.108,21.420,14.639,0.000,0.000,0.000,0.000,36.059,No
 Zone Internal Gains Nominal, ZONE SOUTH PERIMETER SPACE - STORY TOP,207.25,22.3,9.290,0.108,21.420,14.639,0.000,0.000,0.000,0.000,36.059,No
 Zone Internal Gains Nominal, ZONE WEST PERIMETER SPACE - STORY GROUND,131.20,14.1,9.290,0.108,21.420,14.639,0.000,0.000,0.000,0.000,36.059,No
 Zone Internal Gains Nominal, ZONE WEST PERIMETER SPACE - STORY MID,131.20,14.1,9.290,0.108,21.420,14.639,0.000,0.000,0.000,0.000,36.059,No
 Zone Internal Gains Nominal, ZONE WEST PERIMETER SPACE - STORY TOP,131.20,14.1,9.290,0.108,21.420,14.639,0.000,0.000,0.000,0.000,36.059,No
! <People Internal Gains Nominal>,Name,Schedule Name,Zone Name,Zone Floor Area {m2},# Zone Occupants,Number of People {},People/Floor Area {person/m2},Floor Area per person {m2/person},Fraction Radiant,Fraction Convected,Sensible Fraction Calculation,Activity level,ASHRAE 55 Warnings,Carbon Dioxide Generation Rate,Nominal Minimum Number of People,Nominal Maximum Number of People
 People Internal Gains Nominal, ZONE CORE SPACE - STORY GROUND OFFICE WHOLEBUILDING - MD OFFICE PEOPLE,OFFICEOCCUPANCY,ZONE CORE SPACE - STORY GROUND,983.23,105.8,105.8,0.108,9.290,0.300,0.700,AutoCalculate,OFFICEPEOPLEACTIVITYLEVEL,No,3.8200E-008,0,101
 People Internal Gains Nominal, ZONE CORE SPACE - STORY MID OFFICE WHOLEBUILDING - MD OFFICE PEOPLE,OFFICEOCCUPANCY,ZONE CORE SPACE - STORY MID,983.23,105.8,105.8,0.108,9.290,0.300,0.700,AutoCalculate,OFFICEPEOPLEACTIVITYLEVEL,No,3.8200E-008,0,101
 People Internal Gains Nominal, ZONE CORE SPACE - STORY TOP OFFICE WHOLEBUILDING - MD OFFICE PEOPLE,OFFICEOCCUPANCY,ZONE CORE SPACE - STORY TOP,983.23,105.8,105.8,0.108,9.290,0.300,0.700,AutoCalculate,OFFICEPEOPLEACTIVITYLEVEL,No,3.8200E-008,0,101
 People Internal Gains Nominal, ZONE EAST PERIMETER SPACE - STORY GROUND OFFICE WHOLEBUILDING - MD OFFICE PEOPLE,OFFICEOCCUPANCY,ZONE EAST PERIMETER SPACE - STORY GROUND,131.20,14.1,14.1,0.108,9.290,0.300,0.700,AutoCalculate,OFFICEPEOPLEACTIVITYLEVEL,No,3.8200E-008,0,13
 People Internal Gains Nominal, ZONE EAST PERIMETER SPACE - STORY MID OFFICE WHOLEBUILDING - MD OFFICE PEOPLE,OFFICEOCCUPANCY,ZONE EAST PERIMETER SPACE - STORY MID,131.20,14.1,14.1,0.108,9.290,0.300,0.700,AutoCalculate,OFFICEPEOPLEACTIVITYLEVEL,No,3.8200E-008,0,13
 People Internal Gains Nominal, ZONE EAST PERIMETER SPACE - STORY TOP OFFICE WHOLEBUILDING - MD OFFICE PEOPLE,OFFICEOCCUPANCY,ZONE EAST PERIMETER SPACE - STORY TOP,131.20,14.1,14.1,0.108,9.290,0.300,0.700,AutoCalculate,OFFICEPEOPLEACTIVITYLEVEL,No,3.8200E-008,0,13
 People Internal Gains Nominal, ZONE NORTH PERIMETER SPACE - STORY GROUND OFFICE WHOLEBUILDING - MD OFFICE PEOPLE,OFFICEOCCUPANCY,ZONE NORTH PERIMETER SPACE - STORY GROUND,207.25,22.3,22.3,0.108,9.290,0.300,0.700,AutoCalculate,OFFICEPEOPLEACTIVITYLEVEL,No,3.8200E-008,0,21
 People Internal Gains Nominal, ZONE NORTH PERIMETER SPACE - STORY MID OFFICE WHOLEBUILDING - MD OFFICE PEOPLE,OFFICEOCCUPANCY,ZONE NORTH PERIMETER SPACE - STORY MID,207.25,22.3,22.3,0.108,9.290,0.300,0.700,AutoCalculate,OFFICEPEOPLEACTIVITYLEVEL,No,3.8200E-008,0,21
 People Internal Gains Nominal, ZONE NORTH PERIMETER SPACE - STORY TOP OFFICE WHOLEBUILDING - MD OFFICE PEOPLE,OFFICEOCCUPANCY,ZONE NORTH PERIMETER SPACE - STORY TOP,207.25,22.3,22.3,0.108,9.290,0.300,0.700,AutoCalculate,OFFICEPEOPLEACTIVITYLEVEL,No,3.8200E-008,0,21
 People Internal Gains Nominal, ZONE SOUTH PERIMETER SPACE - STORY GROUND OFFICE WHOLEBUILDING - MD OFFICE PEOPLE,OFFICEOCCUPANCY,ZONE SOUTH PERIMETER SPACE - STORY GROUND,207.25,22.3,22.3,0.108,9.290,0.300,0.700,AutoCalculate,OFFICEPEOPLEACTIVITYLEVEL,No,3.8200E-008,0,21
 People Internal Gains Nominal, ZONE SOUTH PERIMETER SPACE - STORY MID OFFICE WHOLEBUILDING - MD OFFICE PEOPLE,OFFICEOCCUPANCY,ZONE SOUTH PERIMETER SPACE - STORY MID,207.25,22.3,22.3,0.108,9.290,0.300,0.700,AutoCalculate,OFFICEPEOPLEACTIVITYLEVEL,No,3.8200E-008,0,21
 People Internal Gains Nominal, ZONE SOUTH PERIMETER SPACE - STORY TOP OFFICE WHOLEBUILDING - MD OFFICE PEOPLE,OFFICEOCCUPANCY,ZONE SOUTH PERIMETER SPACE - STORY TOP,207.25,22.3,22.3,0.108,9.290,0.300,0.700,AutoCalculate,OFFICEPEOPLEACTIVITYLEVEL,No,3.8200E-008,0,21
 People Internal Gains Nominal, ZONE WEST PERIMETER SPACE - STORY GROUND OFFICE WHOLEBUILDING - MD OFFICE PEOPLE,OFFICEOCCUPANCY,ZONE WEST PERIMETER SPACE - STORY GROUND,131.20,14.1,14.1,0.108,9.290,0.300,0.700,AutoCalculate,OFFICEPEOPLEACTIVITYLEVEL,No,3.8200E-008,0,13
 People Internal Gains Nominal, ZONE WEST PERIMETER SPACE - STORY MID OFFICE WHOLEBUILDING - MD OFFICE PEOPLE,OFFICEOCCUPANCY,ZONE WEST PERIMETER SPACE - STORY MID,131.20,14.1,14.1,0.108,9.290,0.300,0.700,AutoCalculate,OFFICEPEOPLEACTIVITYLEVEL,No,3.8200E-008,0,13
 People Internal Gains Nominal, ZONE WEST PERIMETER SPACE - STORY TOP OFFICE WHOLEBUILDING - MD OFFICE PEOPLE,OFFICEOCCUPANCY,ZONE WEST PERIMETER SPACE - STORY TOP,131.20,14.1,14.1,0.108,9.290,0.300,0.700,AutoCalculate,OFFICEPEOPLEACTIVITYLEVEL,No,3.8200E-008,0,13
! <Lights Internal Gains Nominal>,Name,Schedule Name,Zone Name,Zone Floor Area {m2},# Zone Occupants,Lighting Level {W},Lights/Floor Area {W/m2},Lights per person {W/person},Fraction Return Air,Fraction Radiant,Fraction Short Wave,Fraction Convected,Fraction Replaceable,End-Use Category,Nominal Minimum Lighting Level {W},Nominal Maximum Lighting Level {W}
 Lights Internal Gains Nominal, ZONE CORE SPACE - STORY GROUND OFFICE WHOLEBUILDING - MD OFFICE LIGHTS,OFFICELIGHTS,ZONE CORE SPACE - STORY GROUND,983.23,105.8,21060.906,21.420,199.000,0.000,0.000,0.000,1.000,1.000,General,0.000,21060.906
 Lights Internal Gains Nominal, ZONE CORE SPACE - STORY MID OFFICE WHOLEBUILDING - MD OFFICE LIGHTS,OFFICELIGHTS,ZONE CORE SPACE - STORY MID,983.23,105.8,21060.906,21.420,199.000,0.000,0.000,0.000,1.000,1.000,General,0.000,21060.906
 Lights Internal Gains Nominal, ZONE CORE SPACE - STORY TOP OFFICE WHOLEBUILDING - MD OFFICE LIGHTS,OFFICELIGHTS,ZONE CORE SPACE - STORY TOP,983.23,105.8,21060.906,21.420,199.000,0.000,0.000,0.000,1.000,1.000,General,0.000,21060.906
 Lights Internal Gains Nominal, ZONE EAST PERIMETER SPACE - STORY GROUND OFFICE WHOLEBUILDING - MD OFFICE LIGHTS,OFFICELIGHTS,ZONE EAST PERIMETER SPACE - STORY GROUND,131.20,14.1,2810.264,21.420,199.000,0.000,0.000,0.000,1.000,1.000,General,0.000,2810.264
 Lights Internal Gains Nominal, ZONE EAST PERIMETER SPACE - STORY MID OFFICE WHOLEBUILDING - MD OFFICE LIGHTS,OFFICELIGHTS,ZONE EAST PERIMETER SPACE - STORY MID,131.20,14.1,2810.264,21.420,199.000,0.000,0.000,0.000,1.000,1.000,General,0.000,2810.264
 Lights Internal Gains Nominal, ZONE EAST PERIMETER SPACE - STORY TOP OFFICE WHOLEBUILDING - MD OFFICE LIGHTS,OFFICELIGHTS,ZONE EAST PERIMETER SPACE - STORY TOP,131.20,14.1,2810.264,21.420,199.000,0.000,0.000,0.000,1.000,1.000,General,0.000,2810.264
 Lights Internal Gains Nominal, ZONE NORTH PERIMETER SPACE - STORY GROUND OFFICE WHOLEBUILDING - MD OFFICE LIGHTS,OFFICELIGHTS,ZONE NORTH PERIMETER SPACE - STORY GROUND,207.25,22.3,4439.270,21.420,199.000,0.000,0.000,0.000,1.000,1.000,General,0.000,4439.270
 Lights Internal Gains Nominal, ZONE NORTH PERIMETER SPACE - STORY MID OFFICE WHOLEBUILDING - MD OFFICE LIGHTS,OFFICELIGHTS,ZONE NORTH PERIMETER SPACE - STORY MID,207.25,22.3,4439.270,21.420,199.000,0.000,0.000,0.000,1.000,1.000,General,0.000,4439.270
 Lights Internal Gains Nominal, ZONE NORTH PERIMETER SPACE - STORY TOP OFFICE WHOLEBUILDING - MD OFFICE LIGHTS,OFFICELIGHTS,ZONE NORTH PERIMETER SPACE - STORY TOP,207.25,22.3,4439.270,21.420,199.000,0.000,0.000,0.000,1.000,1.000,General,0.000,4439.270
 Lights Internal Gains Nominal, ZONE SOUTH PERIMETER SPACE - STORY GROUND OFFICE WHOLEBUILDING - MD OFFICE LIGHTS,OFFICELIGHTS,ZONE SOUTH PERIMETER SPACE - STORY GROUND,207.25,22.3,4439.270,21.420,199.000,0.000,0.000,0.000,1.000,1.000,General,0.000,4439.270
 Lights Internal Gains Nominal, ZONE SOUTH PERIMETER SPACE - STORY MID OFFICE WHOLEBUILDING - MD OFFICE LIGHTS,OFFICELIGHTS,ZONE SOUTH PERIMETER SPACE - STORY MID,207.25,22.3,4439.270,21.420,199.000,0.000,0.000,0.000,1.000,1.000,General,0.000,4439.270
 Lights Internal Gains Nominal, ZONE SOUTH PERIMETER SPACE - STORY TOP OFFICE WHOLEBUILDING - MD OFFICE LIGHTS,OFFICELIGHTS,ZONE SOUTH PERIMETER SPACE - STORY TOP,207.25,22.3,4439.270,21.420,199.000,0.000,0.000,0.000,1.000,1.000,General,0.000,4439.270
 Lights Internal Gains Nominal, ZONE WEST PERIMETER SPACE - STORY GROUND OFFICE WHOLEBUILDING - MD OFFICE LIGHTS,OFFICELIGHTS,ZONE WEST PERIMETER SPACE - STORY GROUND,131.20,14.1,2810.264,21.420,199.000,0.000,0.000,0.000,1.000,1.000,General,0.000,2810.264
 Lights Internal Gains Nominal, ZONE WEST PERIMETER SPACE - STORY MID OFFICE WHOLEBUILDING - MD OFFICE LIGHTS,OFFICELIGHTS,ZONE WEST PERIMETER SPACE - STORY MID,131.20,14.1,2810.264,21.420,199.000,0.000,0.000,0.000,1.000,1.000,General,0.000,2810.264
 Lights Internal Gains Nominal, ZONE WEST PERIMETER SPACE - STORY TOP OFFICE WHOLEBUILDING - MD OFFICE LIGHTS,OFFICELIGHTS,ZONE WEST PERIMETER SPACE - STORY TOP,131.20,14.1,2810.264,21.420,199.000,0.000,0.000,0.000,1.000,1.000,General,0.000,2810.264
! <ElectricEquipment Internal Gains Nominal>,Name,Schedule Name,Zone Name,Zone Floor Area {m2},# Zone Occupants,Equipment Level {W},Equipment/Floor Area {W/m2},Equipment per person {W/person},Fraction Latent,Fraction Radiant,Fraction Lost,Fraction Convected,End-Use SubCategory,Nominal Minimum Equipment Level {W},Nominal Maximum Equipment Level {W}
 ElectricEquipment Internal Gains Nominal, ZONE CORE SPACE - STORY GROUND OFFICE WHOLEBUILDING - MD OFFICE ELEC EQUIP,OFFICERECEPTACLE,ZONE CORE SPACE - STORY GROUND,983.23,105.8,14393.383,14.639,136.000,0.000,0.200,0.000,0.800,General,0.000,14393.383
 ElectricEquipment Internal Gains Nominal, ZONE CORE SPACE - STORY MID OFFICE WHOLEBUILDING - MD OFFICE ELEC EQUIP,OFFICERECEPTACLE,ZONE CORE SPACE - STORY MID,983.23,105.8,14393.383,14.639,136.000,0.000,0.200,0.000,0.800,General,0.000,14393.383
 ElectricEquipment Internal Gains Nominal, ZONE CORE SPACE - STORY TOP OFFICE WHOLEBUILDING - MD OFFICE ELEC EQUIP,OFFICERECEPTACLE,ZONE CORE SPACE - STORY TOP,983.23,105.8,14393.383,14.639,136.000,0.000,0.200,0.000,0.800,General,0.000,14393.383
 ElectricEquipment Internal Gains Nominal, ZONE EAST PERIMETER SPACE - STORY GROUND OFFICE WHOLEBUILDING - MD OFFICE ELEC EQUIP,OFFICERECEPTACLE,ZONE EAST PERIMETER SPACE - STORY GROUND,131.20,14.1,1920.582,14.639,136.000,0.000,0.200,0.000,0.800,General,0.000,1920.582
 ElectricEquipment Internal Gains Nominal, ZONE EAST PERIMETER SPACE - STORY MID OFFICE WHOLEBUILDING - MD OFFICE ELEC EQUIP,OFFICERECEPTACLE,ZONE EAST PERIMETER SPACE - STORY MID,131.20,14.1,1920.582,14.639,136.000,0.000,0.200,0.000,0.800,General,0.000,1920.582
 ElectricEquipment Internal Gains Nominal, ZONE EAST PERIMETER SPACE - STORY TOP OFFICE WHOLEBUILDING - MD OFFICE ELEC EQUIP,OFFICERECEPTACLE,ZONE EAST PERIMETER SPACE - STORY TOP,131.20,14.1,1920.582,14.639,136.000,0.000,0.200,0.000,0.800,General,0.000,1920.582
 ElectricEquipment Internal Gains Nominal, ZONE NORTH PERIMETER SPACE - STORY GROUND OFFICE WHOLEBUILDING - MD OFFICE ELEC EQUIP,OFFICERECEPTACLE,ZONE NORTH PERIMETER SPACE - STORY GROUND,207.25,22.3,3033.873,14.639,136.000,0.000,0.200,0.000,0.800,General,0.000,3033.873
 ElectricEquipment Internal Gains Nominal, ZONE NORTH PERIMETER SPACE - STORY MID OFFICE WHOLEBUILDING - MD OFFICE ELEC EQUIP,OFFICERECEPTACLE,ZONE NORTH PERIMETER SPACE - STORY MID,207.25,22.3,3033.873,14.639,136.000,0.000,0.200,0.000,0.800,General,0.000,3033.873
 ElectricEquipment Internal Gains Nominal, ZONE NORTH PERIMETER SPACE - STORY TOP OFFICE WHOLEBUILDING - MD OFFICE ELEC EQUIP,OFFICERECEPTACLE,ZONE NORTH PERIMETER SPACE - STORY TOP,207.25,22.3,3033.873,14.639,136.000,0.000,0.200,0.000,0.800,General,0.000,3033.873
 ElectricEquipment Internal Gains Nominal, ZONE SOUTH PERIMETER SPACE - STORY GROUND OFFICE WHOLEBUILDING - MD OFFICE ELEC EQUIP,OFFICERECEPTACLE,ZONE SOUTH PERIMETER SPACE - STORY GROUND,207.25,22.3,3033.873,14.639,136.000,0.000,0.200,0.000,0.800,General,0.000,3033.873
 ElectricEquipment Internal Gains Nominal, ZONE SOUTH PERIMETER SPACE - STORY MID OFFICE WHOLEBUILDING - MD OFFICE ELEC EQUIP,OFFICERECEPTACLE,ZONE SOUTH PERIMETER SPACE - STORY MID,207.25,22.3,3033.873,14.639,136.000,0.000,0.200,0.000,0.800,General,0.000,3033.873
 ElectricEquipment Internal Gains Nominal, ZONE SOUTH PERIMETER SPACE - STORY TOP OFFICE WHOLEBUILDING - MD OFFICE ELEC EQUIP,OFFICERECEPTACLE,ZONE SOUTH PERIMETER SPACE - STORY TOP,207.25,22.3,3033.873,14.639,136.000,0.000,0.200,0.000,0.800,General,0.000,3033.873
 ElectricEquipment Internal Gains Nominal, ZONE WEST PERIMETER SPACE - STORY GROUND OFFICE WHOLEBUILDING - MD OFFICE ELEC EQUIP,OFFICERECEPTACLE,ZONE WEST PERIMETER SPACE - STORY GROUND,131.20,14.1,1920.582,14.639,136.000,0.000,0.200,0.000,0.800,General,0.000,1920.582
 ElectricEquipment Internal Gains Nominal, ZONE WEST PERIMETER SPACE - STORY MID OFFICE WHOLEBUILDING - MD OFFICE ELEC EQUIP,OFFICERECEPTACLE,ZONE WEST PERIMETER SPACE - STORY MID,131.20,14.1,1920.582,14.639,136.000,0.000,0.200,0.000,0.800,General,0.000,1920.582
 ElectricEquipment Internal Gains Nominal, ZONE WEST PERIMETER SPACE - STORY TOP OFFICE WHOLEBUILDING - MD OFFICE ELEC EQUIP,OFFICERECEPTACLE,ZONE WEST PERIMETER SPACE - STORY TOP,131.20,14.1,1920.582,14.639,136.000,0.000,0.200,0.000,0.800,General,0.000,1920.582
! <Shadowing/Sun Position Calculations Annual Simulations>, Calculation Method, Value {days}, Allowable Number Figures in Shadow Overlap {}, Polygon Clipping Algorithm, Sky Diffuse Modeling Algorithm
Shadowing/Sun Position Calculations Annual Simulations,AverageOverDaysInFrequency,20,15000,SutherlandHodgman,SimpleSkyDiffuseModeling
! <Zone/Window Adjacency Daylighting Counts>, Zone Name, Number of Exterior Windows, Number of Exterior Windows in Adjacent Zones
Zone/Window Adjacency Daylighting Counts, ZONE EAST PERIMETER SPACE - STORY GROUND,1,0
Zone/Window Adjacency Daylighting Counts, ZONE EAST PERIMETER SPACE - STORY MID,1,0
Zone/Window Adjacency Daylighting Counts, ZONE EAST PERIMETER SPACE - STORY TOP,1,0
Zone/Window Adjacency Daylighting Counts, ZONE NORTH PERIMETER SPACE - STORY GROUND,1,0
Zone/Window Adjacency Daylighting Counts, ZONE NORTH PERIMETER SPACE - STORY MID,1,0
Zone/Window Adjacency Daylighting Counts, ZONE NORTH PERIMETER SPACE - STORY TOP,1,0
Zone/Window Adjacency Daylighting Counts, ZONE SOUTH PERIMETER SPACE - STORY GROUND,1,0
Zone/Window Adjacency Daylighting Counts, ZONE SOUTH PERIMETER SPACE - STORY MID,1,0
Zone/Window Adjacency Daylighting Counts, ZONE SOUTH PERIMETER SPACE - STORY TOP,1,0
Zone/Window Adjacency Daylighting Counts, ZONE WEST PERIMETER SPACE - STORY GROUND,1,0
Zone/Window Adjacency Daylighting Counts, ZONE WEST PERIMETER SPACE - STORY MID,1,0
Zone/Window Adjacency Daylighting Counts, ZONE WEST PERIMETER SPACE - STORY TOP,1,0
! <Zone/Window Adjacency Daylighting Matrix>, Zone Name, Number of Adjacent Zones with Windows,Adjacent Zone Names - 1st 100 (max)
Zone/Window Adjacency Daylighting Matrix, ZONE EAST PERIMETER SPACE - STORY GROUND,0
Zone/Window Adjacency Daylighting Matrix, ZONE EAST PERIMETER SPACE - STORY MID,0
Zone/Window Adjacency Daylighting Matrix, ZONE EAST PERIMETER SPACE - STORY TOP,0
Zone/Window Adjacency Daylighting Matrix, ZONE NORTH PERIMETER SPACE - STORY GROUND,0
Zone/Window Adjacency Daylighting Matrix, ZONE NORTH PERIMETER SPACE - STORY MID,0
Zone/Window Adjacency Daylighting Matrix, ZONE NORTH PERIMETER SPACE - STORY TOP,0
Zone/Window Adjacency Daylighting Matrix, ZONE SOUTH PERIMETER SPACE - STORY GROUND,0
Zone/Window Adjacency Daylighting Matrix, ZONE SOUTH PERIMETER SPACE - STORY MID,0
Zone/Window Adjacency Daylighting Matrix, ZONE SOUTH PERIMETER SPACE - STORY TOP,0
Zone/Window Adjacency Daylighting Matrix, ZONE WEST PERIMETER SPACE - STORY GROUND,0
Zone/Window Adjacency Daylighting Matrix, ZONE WEST PERIMETER SPACE - STORY MID,0
Zone/Window Adjacency Daylighting Matrix, ZONE WEST PERIMETER SPACE - STORY TOP,0
! <Water Heater Information>,Type,Name,Volume {m3},Maximum Capacity {W},Standard Rated Recovery Efficiency, Standard Rated Energy Factor
! <ZoneInfiltration Airflow Stats Nominal>,Name,Schedule Name,Zone Name, Zone Floor Area {m2}, # Zone Occupants,Design Volume Flow Rate {m3/s},Volume Flow Rate/Floor Area {m3/s/m2},Volume Flow Rate/Exterior Surface Area {m3/s/m2},ACH - Air Changes per Hour,Equation A - Constant Term Coefficient {},Equation B - Temperature Term Coefficient {1/C},Equation C - Velocity Term Coefficient {s/m}, Equation D - Velocity Squared Term Coefficient {s2/m2}
 ZoneInfiltration Airflow Stats Nominal, ZONE CORE SPACE - STORY GROUND OFFICE WHOLEBUILDING - MD OFFICE INFILTRATION,OFFICEINFILTRATION,ZONE CORE SPACE - STORY GROUND,983.23,105.8,0.000,0.000,N/A,0.000,1.000,0.000,0.000,0.000
 ZoneInfiltration Airflow Stats Nominal, ZONE CORE SPACE - STORY MID OFFICE WHOLEBUILDING - MD OFFICE INFILTRATION,OFFICEINFILTRATION,ZONE CORE SPACE - STORY MID,983.23,105.8,0.000,0.000,N/A,0.000,1.000,0.000,0.000,0.000
 ZoneInfiltration Airflow Stats Nominal, ZONE CORE SPACE - STORY TOP OFFICE WHOLEBUILDING - MD OFFICE INFILTRATION,OFFICEINFILTRATION,ZONE CORE SPACE - STORY TOP,983.23,105.8,0.000,0.000,0.000,0.000,1.000,0.000,0.000,0.000
 ZoneInfiltration Airflow Stats Nominal, ZONE EAST PERIMETER SPACE - STORY GROUND OFFICE WHOLEBUILDING - MD OFFICE INFILTRATION,OFFICEINFILTRATION,ZONE EAST PERIMETER SPACE - STORY GROUND,131.20,14.1,0.147,1.123E-003,1.118E-003,1.020,1.000,0.000,0.000,0.000
 ZoneInfiltration Airflow Stats Nominal, ZONE EAST PERIMETER SPACE - STORY MID OFFICE WHOLEBUILDING - MD OFFICE INFILTRATION,OFFICEINFILTRATION,ZONE EAST PERIMETER SPACE - STORY MID,131.20,14.1,0.147,1.123E-003,1.118E-003,1.020,1.000,0.000,0.000,0.000
 ZoneInfiltration Airflow Stats Nominal, ZONE EAST PERIMETER SPACE - STORY TOP OFFICE WHOLEBUILDING - MD OFFICE INFILTRATION,OFFICEINFILTRATION,ZONE EAST PERIMETER SPACE - STORY TOP,131.20,14.1,0.147,1.123E-003,5.601E-004,1.020,1.000,0.000,0.000,0.000
 ZoneInfiltration Airflow Stats Nominal, ZONE NORTH PERIMETER SPACE - STORY GROUND OFFICE WHOLEBUILDING - MD OFFICE INFILTRATION,OFFICEINFILTRATION,ZONE NORTH PERIMETER SPACE - STORY GROUND,207.25,22.3,0.221,1.066E-003,1.118E-003,0.969,1.000,0.000,0.000,0.000
 ZoneInfiltration Airflow Stats Nominal, ZONE NORTH PERIMETER SPACE - STORY MID OFFICE WHOLEBUILDING - MD OFFICE INFILTRATION,OFFICEINFILTRATION,ZONE NORTH PERIMETER SPACE - STORY MID,207.25,22.3,0.221,1.066E-003,1.118E-003,0.969,1.000,0.000,0.000,0.000
 ZoneInfiltration Airflow Stats Nominal, ZONE NORTH PERIMETER SPACE - STORY TOP OFFICE WHOLEBUILDING - MD OFFICE INFILTRATION,OFFICEINFILTRATION,ZONE NORTH PERIMETER SPACE - STORY TOP,207.25,22.3,0.221,1.066E-003,5.457E-004,0.969,1.000,0.000,0.000,0.000
 ZoneInfiltration Airflow Stats Nominal, ZONE SOUTH PERIMETER SPACE - STORY GROUND OFFICE WHOLEBUILDING - MD OFFICE INFILTRATION,OFFICEINFILTRATION,ZONE SOUTH PERIMETER SPACE - STORY GROUND,207.25,22.3,0.221,1.066E-003,1.118E-003,0.969,1.000,0.000,0.000,0.000
 ZoneInfiltration Airflow Stats Nominal, ZONE SOUTH PERIMETER SPACE - STORY MID OFFICE WHOLEBUILDING - MD OFFICE INFILTRATION,OFFICEINFILTRATION,ZONE SOUTH PERIMETER SPACE - STORY MID,207.25,22.3,0.221,1.066E-003,1.118E-003,0.969,1.000,0.000,0.000,0.000
 ZoneInfiltration Airflow Stats Nominal, ZONE SOUTH PERIMETER SPACE - STORY TOP OFFICE WHOLEBUILDING - MD OFFICE INFILTRATION,OFFICEINFILTRATION,ZONE SOUTH PERIMETER SPACE - STORY TOP,207.25,22.3,0.221,1.066E-003,5.457E-004,0.969,1.000,0.000,0.000,0.000
 ZoneInfiltration Airflow Stats Nominal, ZONE WEST PERIMETER SPACE - STORY GROUND OFFICE WHOLEBUILDING - MD OFFICE INFILTRATION,OFFICEINFILTRATION,ZONE WEST PERIMETER SPACE - STORY GROUND,131.20,14.1,0.147,1.123E-003,1.118E-003,1.020,1.000,0.000,0.000,0.000
 ZoneInfiltration Airflow Stats Nominal, ZONE WEST PERIMETER SPACE - STORY MID OFFICE WHOLEBUILDING - MD OFFICE INFILTRATION,OFFICEINFILTRATION,ZONE WEST PERIMETER SPACE - STORY MID,131.20,14.1,0.147,1.123E-003,1.118E-003,1.020,1.000,0.000,0.000,0.000
 ZoneInfiltration Airflow Stats Nominal, ZONE WEST PERIMETER SPACE - STORY TOP OFFICE WHOLEBUILDING - MD OFFICE INFILTRATION,OFFICEINFILTRATION,ZONE WEST PERIMETER SPACE - STORY TOP,131.20,14.1,0.147,1.123E-003,5.601E-004,1.020,1.000,0.000,0.000,0.000
! <AirFlow Model>, Simple
 AirFlow Model, Simple
! <RoomAir Model>, Zone Name, Mixing/Mundt/UCSDDV/UCSDCV/UCSDUFI/UCSDUFE/User Defined
RoomAir Model,ZONE CORE SPACE - STORY GROUND,Mixing/Well-Stirred
RoomAir Model,ZONE CORE SPACE - STORY MID,Mixing/Well-Stirred
RoomAir Model,ZONE CORE SPACE - STORY TOP,Mixing/Well-Stirred
RoomAir Model,ZONE EAST PERIMETER SPACE - STORY GROUND,Mixing/Well-Stirred
RoomAir Model,ZONE EAST PERIMETER SPACE - STORY MID,Mixing/Well-Stirred
RoomAir Model,ZONE EAST PERIMETER SPACE - STORY TOP,Mixing/Well-Stirred
RoomAir Model,ZONE NORTH PERIMETER SPACE - STORY GROUND,Mixing/Well-Stirred
RoomAir Model,ZONE NORTH PERIMETER SPACE - STORY MID,Mixing/Well-Stirred
RoomAir Model,ZONE NORTH PERIMETER SPACE - STORY TOP,Mixing/Well-Stirred
RoomAir Model,ZONE SOUTH PERIMETER SPACE - STORY GROUND,Mixing/Well-Stirred
RoomAir Model,ZONE SOUTH PERIMETER SPACE - STORY MID,Mixing/Well-Stirred
RoomAir Model,ZONE SOUTH PERIMETER SPACE - STORY TOP,Mixing/Well-Stirred
RoomAir Model,ZONE WEST PERIMETER SPACE - STORY GROUND,Mixing/Well-Stirred
RoomAir Model,ZONE WEST PERIMETER SPACE - STORY MID,Mixing/Well-Stirred
RoomAir Model,ZONE WEST PERIMETER SPACE - STORY TOP,Mixing/Well-Stirred
! <AirflowNetwork Model:Control>, No Multizone or Distribution/Multizone with Distribution/Multizone without Distribution/Multizone with Distribution only during Fan Operation
AirflowNetwork Model:Control,NoMultizoneOrDistribution
! <Zone Volume Capacitance Multiplier>, Sensible Heat Capacity Multiplier, Moisture Capacity Multiplier, Carbon Dioxide Capacity Multiplier, Generic Contaminant Capacity Multiplier
Zone Volume Capacitance Multiplier,   1.000 ,   1.000,   1.000,   1.000
! <Load Timesteps in Zone Design Calculation Averaging Window>, Value
 Load Timesteps in Zone Design Calculation Averaging Window,    4
! <Heating Sizing Factor Information>, Sizing Factor ID, Value
 Heating Sizing Factor Information, Global,   1.2500    
 Heating Sizing Factor Information, Zone ZONE CORE SPACE - STORY GROUND,   1.2500    
 Heating Sizing Factor Information, Zone ZONE CORE SPACE - STORY MID,   1.2500    
 Heating Sizing Factor Information, Zone ZONE CORE SPACE - STORY TOP,   1.2500    
 Heating Sizing Factor Information, Zone ZONE EAST PERIMETER SPACE - STORY GROUND,   1.2500    
 Heating Sizing Factor Information, Zone ZONE EAST PERIMETER SPACE - STORY MID,   1.2500    
 Heating Sizing Factor Information, Zone ZONE EAST PERIMETER SPACE - STORY TOP,   1.2500    
 Heating Sizing Factor Information, Zone ZONE NORTH PERIMETER SPACE - STORY GROUND,   1.2500    
 Heating Sizing Factor Information, Zone ZONE NORTH PERIMETER SPACE - STORY MID,   1.2500    
 Heating Sizing Factor Information, Zone ZONE NORTH PERIMETER SPACE - STORY TOP,   1.2500    
 Heating Sizing Factor Information, Zone ZONE SOUTH PERIMETER SPACE - STORY GROUND,   1.2500    
 Heating Sizing Factor Information, Zone ZONE SOUTH PERIMETER SPACE - STORY MID,   1.2500    
 Heating Sizing Factor Information, Zone ZONE SOUTH PERIMETER SPACE - STORY TOP,   1.2500    
 Heating Sizing Factor Information, Zone ZONE WEST PERIMETER SPACE - STORY GROUND,   1.2500    
 Heating Sizing Factor Information, Zone ZONE WEST PERIMETER SPACE - STORY MID,   1.2500    
 Heating Sizing Factor Information, Zone ZONE WEST PERIMETER SPACE - STORY TOP,   1.2500    
! <Cooling Sizing Factor Information>, Sizing Factor ID, Value
 Cooling Sizing Factor Information, Global,   1.1500    
 Cooling Sizing Factor Information, Zone ZONE CORE SPACE - STORY GROUND,   1.1500    
 Cooling Sizing Factor Information, Zone ZONE CORE SPACE - STORY MID,   1.1500    
 Cooling Sizing Factor Information, Zone ZONE CORE SPACE - STORY TOP,   1.1500    
 Cooling Sizing Factor Information, Zone ZONE EAST PERIMETER SPACE - STORY GROUND,   1.1500    
 Cooling Sizing Factor Information, Zone ZONE EAST PERIMETER SPACE - STORY MID,   1.1500    
 Cooling Sizing Factor Information, Zone ZONE EAST PERIMETER SPACE - STORY TOP,   1.1500    
 Cooling Sizing Factor Information, Zone ZONE NORTH PERIMETER SPACE - STORY GROUND,   1.1500    
 Cooling Sizing Factor Information, Zone ZONE NORTH PERIMETER SPACE - STORY MID,   1.1500    
 Cooling Sizing Factor Information, Zone ZONE NORTH PERIMETER SPACE - STORY TOP,   1.1500    
 Cooling Sizing Factor Information, Zone ZONE SOUTH PERIMETER SPACE - STORY GROUND,   1.1500    
 Cooling Sizing Factor Information, Zone ZONE SOUTH PERIMETER SPACE - STORY MID,   1.1500    
 Cooling Sizing Factor Information, Zone ZONE SOUTH PERIMETER SPACE - STORY TOP,   1.1500    
 Cooling Sizing Factor Information, Zone ZONE WEST PERIMETER SPACE - STORY GROUND,   1.1500    
 Cooling Sizing Factor Information, Zone ZONE WEST PERIMETER SPACE - STORY MID,   1.1500    
 Cooling Sizing Factor Information, Zone ZONE WEST PERIMETER SPACE - STORY TOP,   1.1500    
! <Sky Daylight Factors>, MonthAndDay, Zone Name, Window Name, Daylight Fac: Ref Pt #1, Daylight Fac: Ref Pt #2
 Clear Sky Daylight Factors,08/21,ZONE EAST PERIMETER SPACE - STORY GROUND,SUB SURFACE 2,7.2545E-002,0.0000
 Clear Turbid Sky Daylight Factors,08/21,ZONE EAST PERIMETER SPACE - STORY GROUND,SUB SURFACE 2,6.3882E-002,0.0000
 Intermediate Sky Daylight Factors,08/21,ZONE EAST PERIMETER SPACE - STORY GROUND,SUB SURFACE 2,5.0794E-002,0.0000
 Overcast Sky Daylight Factors,08/21,ZONE EAST PERIMETER SPACE - STORY GROUND,SUB SURFACE 2,5.6583E-002,0.0000
 Clear Sky Daylight Factors,08/21,ZONE EAST PERIMETER SPACE - STORY MID,SUB SURFACE 8,7.2545E-002,0.0000
 Clear Turbid Sky Daylight Factors,08/21,ZONE EAST PERIMETER SPACE - STORY MID,SUB SURFACE 8,6.3882E-002,0.0000
 Intermediate Sky Daylight Factors,08/21,ZONE EAST PERIMETER SPACE - STORY MID,SUB SURFACE 8,5.0794E-002,0.0000
 Overcast Sky Daylight Factors,08/21,ZONE EAST PERIMETER SPACE - STORY MID,SUB SURFACE 8,5.6583E-002,0.0000
 Clear Sky Daylight Factors,08/21,ZONE EAST PERIMETER SPACE - STORY TOP,SUB SURFACE 10,6.2049E-002,0.0000
 Clear Turbid Sky Daylight Factors,08/21,ZONE EAST PERIMETER SPACE - STORY TOP,SUB SURFACE 10,5.3809E-002,0.0000
 Intermediate Sky Daylight Factors,08/21,ZONE EAST PERIMETER SPACE - STORY TOP,SUB SURFACE 10,4.1332E-002,0.0000
 Overcast Sky Daylight Factors,08/21,ZONE EAST PERIMETER SPACE - STORY TOP,SUB SURFACE 10,4.6819E-002,0.0000
 Clear Sky Daylight Factors,08/21,ZONE NORTH PERIMETER SPACE - STORY GROUND,SUB SURFACE 3,5.8316E-002,0.0000
 Clear Turbid Sky Daylight Factors,08/21,ZONE NORTH PERIMETER SPACE - STORY GROUND,SUB SURFACE 3,4.7809E-002,0.0000
 Intermediate Sky Daylight Factors,08/21,ZONE NORTH PERIMETER SPACE - STORY GROUND,SUB SURFACE 3,3.2619E-002,0.0000
 Overcast Sky Daylight Factors,08/21,ZONE NORTH PERIMETER SPACE - STORY GROUND,SUB SURFACE 3,5.6203E-002,0.0000
 Clear Sky Daylight Factors,08/21,ZONE NORTH PERIMETER SPACE - STORY MID,SUB SURFACE 5,5.8316E-002,0.0000
 Clear Turbid Sky Daylight Factors,08/21,ZONE NORTH PERIMETER SPACE - STORY MID,SUB SURFACE 5,4.7809E-002,0.0000
 Intermediate Sky Daylight Factors,08/21,ZONE NORTH PERIMETER SPACE - STORY MID,SUB SURFACE 5,3.2619E-002,0.0000
 Overcast Sky Daylight Factors,08/21,ZONE NORTH PERIMETER SPACE - STORY MID,SUB SURFACE 5,5.6203E-002,0.0000
 Clear Sky Daylight Factors,08/21,ZONE NORTH PERIMETER SPACE - STORY TOP,SUB SURFACE 12,4.8804E-002,0.0000
 Clear Turbid Sky Daylight Factors,08/21,ZONE NORTH PERIMETER SPACE - STORY TOP,SUB SURFACE 12,3.8897E-002,0.0000
 Intermediate Sky Daylight Factors,08/21,ZONE NORTH PERIMETER SPACE - STORY TOP,SUB SURFACE 12,2.4406E-002,0.0000
 Overcast Sky Daylight Factors,08/21,ZONE NORTH PERIMETER SPACE - STORY TOP,SUB SURFACE 12,4.6308E-002,0.0000
 Clear Sky Daylight Factors,08/21,ZONE SOUTH PERIMETER SPACE - STORY GROUND,SUB SURFACE 4,9.7405E-002,0.0000
 Clear Turbid Sky Daylight Factors,08/21,ZONE SOUTH PERIMETER SPACE - STORY GROUND,SUB SURFACE 4,9.2194E-002,0.0000
 Intermediate Sky Daylight Factors,08/21,ZONE SOUTH PERIMETER SPACE - STORY GROUND,SUB SURFACE 4,7.2710E-002,0.0000
 Overcast Sky Daylight Factors,08/21,ZONE SOUTH PERIMETER SPACE - STORY GROUND,SUB SURFACE 4,5.6203E-002,0.0000
 Clear Sky Daylight Factors,08/21,ZONE SOUTH PERIMETER SPACE - STORY MID,SUB SURFACE 6,9.7405E-002,0.0000
 Clear Turbid Sky Daylight Factors,08/21,ZONE SOUTH PERIMETER SPACE - STORY MID,SUB SURFACE 6,9.2194E-002,0.0000
 Intermediate Sky Daylight Factors,08/21,ZONE SOUTH PERIMETER SPACE - STORY MID,SUB SURFACE 6,7.2710E-002,0.0000
 Overcast Sky Daylight Factors,08/21,ZONE SOUTH PERIMETER SPACE - STORY MID,SUB SURFACE 6,5.6203E-002,0.0000
 Clear Sky Daylight Factors,08/21,ZONE SOUTH PERIMETER SPACE - STORY TOP,SUB SURFACE 9,8.4860E-002,0.0000
 Clear Turbid Sky Daylight Factors,08/21,ZONE SOUTH PERIMETER SPACE - STORY TOP,SUB SURFACE 9,7.9750E-002,0.0000
 Intermediate Sky Daylight Factors,08/21,ZONE SOUTH PERIMETER SPACE - STORY TOP,SUB SURFACE 9,6.1356E-002,0.0000
 Overcast Sky Daylight Factors,08/21,ZONE SOUTH PERIMETER SPACE - STORY TOP,SUB SURFACE 9,4.6308E-002,0.0000
 Clear Sky Daylight Factors,08/21,ZONE WEST PERIMETER SPACE - STORY GROUND,SUB SURFACE 1,6.8103E-002,0.0000
 Clear Turbid Sky Daylight Factors,08/21,ZONE WEST PERIMETER SPACE - STORY GROUND,SUB SURFACE 1,5.8881E-002,0.0000
 Intermediate Sky Daylight Factors,08/21,ZONE WEST PERIMETER SPACE - STORY GROUND,SUB SURFACE 1,4.6080E-002,0.0000
 Overcast Sky Daylight Factors,08/21,ZONE WEST PERIMETER SPACE - STORY GROUND,SUB SURFACE 1,5.6583E-002,0.0000
 Clear Sky Daylight Factors,08/21,ZONE WEST PERIMETER SPACE - STORY MID,SUB SURFACE 7,6.8103E-002,0.0000
 Clear Turbid Sky Daylight Factors,08/21,ZONE WEST PERIMETER SPACE - STORY MID,SUB SURFACE 7,5.8881E-002,0.0000
 Intermediate Sky Daylight Factors,08/21,ZONE WEST PERIMETER SPACE - STORY MID,SUB SURFACE 7,4.6080E-002,0.0000
 Overcast Sky Daylight Factors,08/21,ZONE WEST PERIMETER SPACE - STORY MID,SUB SURFACE 7,5.6583E-002,0.0000
 Clear Sky Daylight Factors,08/21,ZONE WEST PERIMETER SPACE - STORY TOP,SUB SURFACE 11,5.7956E-002,0.0000
 Clear Turbid Sky Daylight Factors,08/21,ZONE WEST PERIMETER SPACE - STORY TOP,SUB SURFACE 11,4.9213E-002,0.0000
 Intermediate Sky Daylight Factors,08/21,ZONE WEST PERIMETER SPACE - STORY TOP,SUB SURFACE 11,3.6987E-002,0.0000
 Overcast Sky Daylight Factors,08/21,ZONE WEST PERIMETER SPACE - STORY TOP,SUB SURFACE 11,4.6819E-002,0.0000
! <Zone Sizing Information>, Zone Name, Load Type, Calc Des Load {W}, User Des Load {W}, Calc Des Air Flow Rate {m3/s}, User Des Air Flow Rate {m3/s}, Design Day Name, Date/Time of Peak, Temperature at Peak {C}, Humidity Ratio at Peak {kgWater/kgDryAir}, Floor Area {m2}, # Occupants, Calc Outdoor Air Flow Rate {m3/s}, Calc DOAS Heat Addition Rate {W}
 Zone Sizing Information, ZONE CORE SPACE - STORY GROUND, Cooling, 46655.19049, 53653.46906, 3.08291, 3.54534, CLIMATE ZONE 3 ANN CLG .4% CONDNS DB=>MWB, 8/21 06:00:00, 20.44800, 9.30032E-003, 983.22722, 105.83370, 0.74922, 0.00000
 Zone Sizing Information, ZONE CORE SPACE - STORY GROUND, Heating, 11764.27917, 14705.34896, 0.32156, 0.74922, CLIMATE ZONE 3 ANN HTG 99.6% CONDNS DB, 1/21 06:00:00, 2.90000, 4.65595E-003, 983.22722, 105.83370, 0.74922, 0.00000
 Zone Sizing Information, ZONE CORE SPACE - STORY MID, Cooling, 48246.14980, 55483.07227, 3.19938, 3.67928, CLIMATE ZONE 3 ANN CLG .4% CONDNS DB=>MWB, 8/21 06:00:00, 20.44800, 9.30032E-003, 983.22722, 105.83370, 0.74922, 0.00000
 Zone Sizing Information, ZONE CORE SPACE - STORY MID, Heating, 13227.35380, 16534.19225, 0.36150, 0.74922, CLIMATE ZONE 3 ANN HTG 99.6% CONDNS DB, 1/21 06:00:00, 2.90000, 4.65595E-003, 983.22722, 105.83370, 0.74922, 0.00000
 Zone Sizing Information, ZONE CORE SPACE - STORY TOP, Cooling, 46313.01537, 53259.96768, 3.05769, 3.51635, CLIMATE ZONE 3 ANN CLG .4% CONDNS DB=>MWB, 8/21 06:00:00, 20.44800, 9.30032E-003, 983.22722, 105.83370, 0.74922, 0.00000
 Zone Sizing Information, ZONE CORE SPACE - STORY TOP, Heating, 26821.87662, 33527.34578, 0.70721, 0.88401, CLIMATE ZONE 3 ANN HTG 99.6% CONDNS DB, 1/21 06:00:00, 2.90000, 4.65595E-003, 983.22722, 105.83370, 0.74922, 0.00000
 Zone Sizing Information, ZONE EAST PERIMETER SPACE - STORY GROUND, Cooling, 18463.61587, 21233.15825, 1.35226, 1.55510, CLIMATE ZONE 3 ANN CLG .4% CONDNS DB=>MWB, 8/21 09:15:00, 23.94450, 9.30032E-003, 131.19700, 14.12193, 9.99721E-002, 0.00000
 Zone Sizing Information, ZONE EAST PERIMETER SPACE - STORY GROUND, Heating, 7833.07570, 9791.34462, 0.21254, 0.26567, CLIMATE ZONE 3 ANN HTG 99.6% CONDNS DB, 1/21 06:00:00, 2.90000, 4.65595E-003, 131.19700, 14.12193, 9.99721E-002, 0.00000
 Zone Sizing Information, ZONE EAST PERIMETER SPACE - STORY MID, Cooling, 16596.31170, 19085.75846, 1.21550, 1.39783, CLIMATE ZONE 3 ANN CLG .4% CONDNS DB=>MWB, 8/21 09:15:00, 23.94450, 9.30032E-003, 131.19700, 14.12193, 9.99721E-002, 0.00000
 Zone Sizing Information, ZONE EAST PERIMETER SPACE - STORY MID, Heating, 8006.27076, 10007.83845, 0.21738, 0.27173, CLIMATE ZONE 3 ANN HTG 99.6% CONDNS DB, 1/21 06:00:00, 2.90000, 4.65595E-003, 131.19700, 14.12193, 9.99721E-002, 0.00000
 Zone Sizing Information, ZONE EAST PERIMETER SPACE - STORY TOP, Cooling, 18487.74668, 21260.90868, 1.35403, 1.55714, CLIMATE ZONE 3 ANN CLG .4% CONDNS DB=>MWB, 8/21 09:15:00, 23.94450, 9.30032E-003, 131.19700, 14.12193, 9.99721E-002, 0.00000
 Zone Sizing Information, ZONE EAST PERIMETER SPACE - STORY TOP, Heating, 9332.28258, 11665.35322, 0.25456, 0.31820, CLIMATE ZONE 3 ANN HTG 99.6% CONDNS DB, 1/21 06:00:00, 2.90000, 4.65595E-003, 131.19700, 14.12193, 9.99721E-002, 0.00000
 Zone Sizing Information, ZONE NORTH PERIMETER SPACE - STORY GROUND, Cooling, 9356.14854, 10759.57083, 0.68524, 0.78803, CLIMATE ZONE 3 ANN CLG .4% CONDNS DB=>MWB, 8/21 19:30:00, 24.40700, 9.30032E-003, 207.24709, 22.30789, 0.15792, 0.00000
 Zone Sizing Information, ZONE NORTH PERIMETER SPACE - STORY GROUND, Heating, 11890.30754, 14862.88442, 0.32211, 0.40263, CLIMATE ZONE 3 ANN HTG 99.6% CONDNS DB, 1/21 06:00:00, 2.90000, 4.65595E-003, 207.24709, 22.30789, 0.15792, 0.00000
 Zone Sizing Information, ZONE NORTH PERIMETER SPACE - STORY MID, Cooling, 9732.87865, 11192.81044, 0.71284, 0.81976, CLIMATE ZONE 3 ANN CLG .4% CONDNS DB=>MWB, 8/21 19:30:00, 24.40700, 9.30032E-003, 207.24709, 22.30789, 0.15792, 0.00000
 Zone Sizing Information, ZONE NORTH PERIMETER SPACE - STORY MID, Heating, 12134.04672, 15167.55840, 0.32895, 0.41118, CLIMATE ZONE 3 ANN HTG 99.6% CONDNS DB, 1/21 06:00:00, 2.90000, 4.65595E-003, 207.24709, 22.30789, 0.15792, 0.00000
 Zone Sizing Information, ZONE NORTH PERIMETER SPACE - STORY TOP, Cooling, 9090.86187, 10454.49115, 0.66581, 0.76569, CLIMATE ZONE 3 ANN CLG .4% CONDNS DB=>MWB, 8/21 19:15:00, 24.61050, 9.30032E-003, 207.24709, 22.30789, 0.15792, 0.00000
 Zone Sizing Information, ZONE NORTH PERIMETER SPACE - STORY TOP, Heating, 14102.00148, 17627.50185, 0.38412, 0.48015, CLIMATE ZONE 3 ANN HTG 99.6% CONDNS DB, 1/21 06:00:00, 2.90000, 4.65595E-003, 207.24709, 22.30789, 0.15792, 0.00000
 Zone Sizing Information, ZONE SOUTH PERIMETER SPACE - STORY GROUND, Cooling, 20172.13117, 23197.95085, 1.47739, 1.69900, CLIMATE ZONE 3 ANN CLG .4% CONDNS DB=>MWB, 8/21 13:30:00, 27.51500, 9.30032E-003, 207.24709, 22.30789, 0.15792, 0.00000
 Zone Sizing Information, ZONE SOUTH PERIMETER SPACE - STORY GROUND, Heating, 11912.03985, 14890.04981, 0.32272, 0.40340, CLIMATE ZONE 3 ANN HTG 99.6% CONDNS DB, 1/21 06:00:00, 2.90000, 4.65595E-003, 207.24709, 22.30789, 0.15792, 0.00000
 Zone Sizing Information, ZONE SOUTH PERIMETER SPACE - STORY MID, Cooling, 18690.39246, 21493.95133, 1.36887, 1.57420, CLIMATE ZONE 3 ANN CLG .4% CONDNS DB=>MWB, 8/21 13:30:00, 27.51500, 9.30032E-003, 207.24709, 22.30789, 0.15792, 0.00000
 Zone Sizing Information, ZONE SOUTH PERIMETER SPACE - STORY MID, Heating, 12133.94389, 15167.42987, 0.32894, 0.41118, CLIMATE ZONE 3 ANN HTG 99.6% CONDNS DB, 1/21 06:00:00, 2.90000, 4.65595E-003, 207.24709, 22.30789, 0.15792, 0.00000
 Zone Sizing Information, ZONE SOUTH PERIMETER SPACE - STORY TOP, Cooling, 21155.52493, 24328.85366, 1.54942, 1.78183, CLIMATE ZONE 3 ANN CLG .4% CONDNS DB=>MWB, 8/21 13:15:00, 27.42250, 9.30031E-003, 207.24709, 22.30789, 0.15792, 0.00000
 Zone Sizing Information, ZONE SOUTH PERIMETER SPACE - STORY TOP, Heating, 14088.31221, 17610.39026, 0.38373, 0.47967, CLIMATE ZONE 3 ANN HTG 99.6% CONDNS DB, 1/21 06:00:00, 2.90000, 4.65595E-003, 207.24709, 22.30789, 0.15792, 0.00000
 Zone Sizing Information, ZONE WEST PERIMETER SPACE - STORY GROUND, Cooling, 19940.74356, 22931.85510, 1.46045, 1.67951, CLIMATE ZONE 3 ANN CLG .4% CONDNS DB=>MWB, 8/21 17:15:00, 26.47900, 9.30032E-003, 131.19700, 14.12193, 9.99721E-002, 0.00000
 Zone Sizing Information, ZONE WEST PERIMETER SPACE - STORY GROUND, Heating, 7845.66951, 9807.08689, 0.21290, 0.26612, CLIMATE ZONE 3 ANN HTG 99.6% CONDNS DB, 1/21 06:00:00, 2.90000, 4.65595E-003, 131.19700, 14.12193, 9.99721E-002, 0.00000
 Zone Sizing Information, ZONE WEST PERIMETER SPACE - STORY MID, Cooling, 17953.38879, 20646.39711, 1.31490, 1.51213, CLIMATE ZONE 3 ANN CLG .4% CONDNS DB=>MWB, 8/21 17:15:00, 26.47900, 9.30032E-003, 131.19700, 14.12193, 9.99721E-002, 0.00000
 Zone Sizing Information, ZONE WEST PERIMETER SPACE - STORY MID, Heating, 8006.13865, 10007.67331, 0.21738, 0.27172, CLIMATE ZONE 3 ANN HTG 99.6% CONDNS DB, 1/21 06:00:00, 2.90000, 4.65595E-003, 131.19700, 14.12193, 9.99721E-002, 0.00000
 Zone Sizing Information, ZONE WEST PERIMETER SPACE - STORY TOP, Cooling, 19924.43466, 22913.09986, 1.45925, 1.67814, CLIMATE ZONE 3 ANN CLG .4% CONDNS DB=>MWB, 8/21 16:45:00, 26.81200, 9.30032E-003, 131.19700, 14.12193, 9.99721E-002, 0.00000
 Zone Sizing Information, ZONE WEST PERIMETER SPACE - STORY TOP, Heating, 9323.23947, 11654.04934, 0.25430, 0.31788, CLIMATE ZONE 3 ANN HTG 99.6% CONDNS DB, 1/21 06:00:00, 2.90000, 4.65595E-003, 131.19700, 14.12193, 9.99721E-002, 0.00000
! <System Sizing Information>, System Name, Field Description, Value
 System Sizing Information, 5 ZONE PVAV, Calculated Cooling Design Air Flow Rate [m3/s], 7.40214
 System Sizing Information, 5 ZONE PVAV, User Cooling Design Air Flow Rate [m3/s], 7.40214
 System Sizing Information, 5 ZONE PVAV, Calculated Heating Design Air Flow Rate [m3/s], 2.08704
 System Sizing Information, 5 ZONE PVAV, User Heating Design Air Flow Rate [m3/s], 2.08704
 System Sizing Information, 5 ZONE PVAV 1, Calculated Cooling Design Air Flow Rate [m3/s], 7.43292
 System Sizing Information, 5 ZONE PVAV 1, User Cooling Design Air Flow Rate [m3/s], 7.43292
 System Sizing Information, 5 ZONE PVAV 1, Calculated Heating Design Air Flow Rate [m3/s], 2.11503
 System Sizing Information, 5 ZONE PVAV 1, User Heating Design Air Flow Rate [m3/s], 2.11503
 System Sizing Information, 5 ZONE PVAV 2, Calculated Cooling Design Air Flow Rate [m3/s], 7.93297
 System Sizing Information, 5 ZONE PVAV 2, User Cooling Design Air Flow Rate [m3/s], 7.93297
 System Sizing Information, 5 ZONE PVAV 2, Calculated Heating Design Air Flow Rate [m3/s], 2.47990
 System Sizing Information, 5 ZONE PVAV 2, User Heating Design Air Flow Rate [m3/s], 2.47990
! <Component Sizing Information>, Component Type, Component Name, Input Field Description, Value
 Component Sizing Information, AirTerminal:SingleDuct:VAV:Reheat, ZONE CORE SPACE - STORY GROUND VAV TERM, Design Size Maximum Air Flow Rate [m3/s], 3.54534
 Component Sizing Information, AirTerminal:SingleDuct:VAV:Reheat, ZONE CORE SPACE - STORY GROUND VAV TERM, Design Size Constant Minimum Air Flow Fraction, 0.00000
 Component Sizing Information, AirTerminal:SingleDuct:VAV:Reheat, ZONE CORE SPACE - STORY GROUND VAV TERM, User-Specified Constant Minimum Air Flow Fraction, 0.32732
 Component Sizing Information, AirTerminal:SingleDuct:VAV:Reheat, ZONE CORE SPACE - STORY GROUND VAV TERM, Design Size Minimum Air Flow Rate [m3/s], 1.16048
 Component Sizing Information, AirTerminal:SingleDuct:VAV:Reheat, ZONE CORE SPACE - STORY GROUND VAV TERM, Design Size Maximum Flow per Zone Floor Area during Reheat [m3/s-m2], 1.18028E-003
 Component Sizing Information, AirTerminal:SingleDuct:VAV:Reheat, ZONE CORE SPACE - STORY GROUND VAV TERM, Design Size Maximum Flow Fraction during Reheat [], 0.32732
 Component Sizing Information, AirTerminal:SingleDuct:VAV:Reheat, ZONE CORE SPACE - STORY GROUND VAV TERM, Design Size Maximum Reheat Water Flow Rate [m3/s], 4.60155E-004
 Component Sizing Information, AirTerminal:SingleDuct:VAV:Reheat, ZONE CORE SPACE - STORY GROUND VAV TERM, Design Size Reheat Coil Sizing Air Volume Flow Rate [m3/s], 1.16048
 Component Sizing Information, AirTerminal:SingleDuct:VAV:Reheat, ZONE CORE SPACE - STORY GROUND VAV TERM, Design Size Reheat Coil Sizing Inlet Air Temperature [C], 16.66667
 Component Sizing Information, AirTerminal:SingleDuct:VAV:Reheat, ZONE CORE SPACE - STORY GROUND VAV TERM, Design Size Reheat Coil Sizing Inlet Air Humidity Ratio [kgWater/kgDryAir], 8.00000E-003
 Component Sizing Information, Coil:Heating:Water, ZONE CORE SPACE - STORY GROUND RHT COIL, Design Size Design Coil Load [W], 21395.01684
 Component Sizing Information, Coil:Heating:Water, ZONE CORE SPACE - STORY GROUND RHT COIL, Design Size Maximum Water Flow Rate [m3/s], 4.60155E-004
 Component Sizing Information, Coil:Heating:Water, ZONE CORE SPACE - STORY GROUND RHT COIL, Design Size U-Factor Times Area Value [W/K], 426.54182
! <Water Heating Coil Capacity Information>,Component Type,Name,Nominal Total Capacity {W}
Water Heating Coil Capacity Information,Coil:Heating:Water,ZONE CORE SPACE - STORY GROUND RHT COIL,21401.89
 Component Sizing Information, AirTerminal:SingleDuct:VAV:Reheat, ZONE CORE SPACE - STORY MID VAV TERM, Design Size Maximum Air Flow Rate [m3/s], 3.67928
 Component Sizing Information, AirTerminal:SingleDuct:VAV:Reheat, ZONE CORE SPACE - STORY MID VAV TERM, Design Size Constant Minimum Air Flow Fraction, 0.00000
 Component Sizing Information, AirTerminal:SingleDuct:VAV:Reheat, ZONE CORE SPACE - STORY MID VAV TERM, User-Specified Constant Minimum Air Flow Fraction, 0.31687
 Component Sizing Information, AirTerminal:SingleDuct:VAV:Reheat, ZONE CORE SPACE - STORY MID VAV TERM, Design Size Minimum Air Flow Rate [m3/s], 1.16585
 Component Sizing Information, AirTerminal:SingleDuct:VAV:Reheat, ZONE CORE SPACE - STORY MID VAV TERM, Design Size Maximum Flow per Zone Floor Area during Reheat [m3/s-m2], 1.18574E-003
 Component Sizing Information, AirTerminal:SingleDuct:VAV:Reheat, ZONE CORE SPACE - STORY MID VAV TERM, Design Size Maximum Flow Fraction during Reheat [], 0.31687
 Component Sizing Information, AirTerminal:SingleDuct:VAV:Reheat, ZONE CORE SPACE - STORY MID VAV TERM, Design Size Maximum Reheat Water Flow Rate [m3/s], 5.00798E-004
 Component Sizing Information, AirTerminal:SingleDuct:VAV:Reheat, ZONE CORE SPACE - STORY MID VAV TERM, Design Size Reheat Coil Sizing Air Volume Flow Rate [m3/s], 1.16585
 Component Sizing Information, AirTerminal:SingleDuct:VAV:Reheat, ZONE CORE SPACE - STORY MID VAV TERM, Design Size Reheat Coil Sizing Inlet Air Temperature [C], 16.66667
 Component Sizing Information, AirTerminal:SingleDuct:VAV:Reheat, ZONE CORE SPACE - STORY MID VAV TERM, Design Size Reheat Coil Sizing Inlet Air Humidity Ratio [kgWater/kgDryAir], 8.00000E-003
 Component Sizing Information, Coil:Heating:Water, ZONE CORE SPACE - STORY MID RHT COIL, Design Size Design Coil Load [W], 23284.72943
 Component Sizing Information, Coil:Heating:Water, ZONE CORE SPACE - STORY MID RHT COIL, Design Size Maximum Water Flow Rate [m3/s], 5.00798E-004
 Component Sizing Information, Coil:Heating:Water, ZONE CORE SPACE - STORY MID RHT COIL, Design Size U-Factor Times Area Value [W/K], 469.21976
Water Heating Coil Capacity Information,Coil:Heating:Water,ZONE CORE SPACE - STORY MID RHT COIL,23291.47
 Component Sizing Information, AirTerminal:SingleDuct:VAV:Reheat, ZONE CORE SPACE - STORY TOP VAV TERM, Design Size Maximum Air Flow Rate [m3/s], 3.51635
 Component Sizing Information, AirTerminal:SingleDuct:VAV:Reheat, ZONE CORE SPACE - STORY TOP VAV TERM, Design Size Constant Minimum Air Flow Fraction, 0.00000
 Component Sizing Information, AirTerminal:SingleDuct:VAV:Reheat, ZONE CORE SPACE - STORY TOP VAV TERM, User-Specified Constant Minimum Air Flow Fraction, 0.33686
 Component Sizing Information, AirTerminal:SingleDuct:VAV:Reheat, ZONE CORE SPACE - STORY TOP VAV TERM, Design Size Minimum Air Flow Rate [m3/s], 1.18453
 Component Sizing Information, AirTerminal:SingleDuct:VAV:Reheat, ZONE CORE SPACE - STORY TOP VAV TERM, Design Size Maximum Flow per Zone Floor Area during Reheat [m3/s-m2], 1.20474E-003
 Component Sizing Information, AirTerminal:SingleDuct:VAV:Reheat, ZONE CORE SPACE - STORY TOP VAV TERM, Design Size Maximum Flow Fraction during Reheat [], 0.33686
 Component Sizing Information, AirTerminal:SingleDuct:VAV:Reheat, ZONE CORE SPACE - STORY TOP VAV TERM, Design Size Maximum Reheat Water Flow Rate [m3/s], 8.74716E-004
 Component Sizing Information, AirTerminal:SingleDuct:VAV:Reheat, ZONE CORE SPACE - STORY TOP VAV TERM, Design Size Reheat Coil Sizing Air Volume Flow Rate [m3/s], 1.18453
 Component Sizing Information, AirTerminal:SingleDuct:VAV:Reheat, ZONE CORE SPACE - STORY TOP VAV TERM, Design Size Reheat Coil Sizing Inlet Air Temperature [C], 16.66667
 Component Sizing Information, AirTerminal:SingleDuct:VAV:Reheat, ZONE CORE SPACE - STORY TOP VAV TERM, Design Size Reheat Coil Sizing Inlet Air Humidity Ratio [kgWater/kgDryAir], 8.00000E-003
 Component Sizing Information, Coil:Heating:Water, ZONE CORE SPACE - STORY TOP RHT COIL, Design Size Design Coil Load [W], 40670.15427
 Component Sizing Information, Coil:Heating:Water, ZONE CORE SPACE - STORY TOP RHT COIL, Design Size Maximum Water Flow Rate [m3/s], 8.74716E-004
 Component Sizing Information, Coil:Heating:Water, ZONE CORE SPACE - STORY TOP RHT COIL, Design Size U-Factor Times Area Value [W/K], 926.72518
Water Heating Coil Capacity Information,Coil:Heating:Water,ZONE CORE SPACE - STORY TOP RHT COIL,40663.12
 Component Sizing Information, AirTerminal:SingleDuct:VAV:Reheat, ZONE EAST PERIMETER SPACE - STORY GROUND VAV TERM, Design Size Maximum Air Flow Rate [m3/s], 1.55510
 Component Sizing Information, AirTerminal:SingleDuct:VAV:Reheat, ZONE EAST PERIMETER SPACE - STORY GROUND VAV TERM, Design Size Constant Minimum Air Flow Fraction, 0.00000
 Component Sizing Information, AirTerminal:SingleDuct:VAV:Reheat, ZONE EAST PERIMETER SPACE - STORY GROUND VAV TERM, User-Specified Constant Minimum Air Flow Fraction, 0.30000
 Component Sizing Information, AirTerminal:SingleDuct:VAV:Reheat, ZONE EAST PERIMETER SPACE - STORY GROUND VAV TERM, Design Size Minimum Air Flow Rate [m3/s], 0.46653
 Component Sizing Information, AirTerminal:SingleDuct:VAV:Reheat, ZONE EAST PERIMETER SPACE - STORY GROUND VAV TERM, Design Size Maximum Flow per Zone Floor Area during Reheat [m3/s-m2], 3.55596E-003
 Component Sizing Information, AirTerminal:SingleDuct:VAV:Reheat, ZONE EAST PERIMETER SPACE - STORY GROUND VAV TERM, Design Size Maximum Flow Fraction during Reheat [], 0.30000
 Component Sizing Information, AirTerminal:SingleDuct:VAV:Reheat, ZONE EAST PERIMETER SPACE - STORY GROUND VAV TERM, Design Size Maximum Reheat Water Flow Rate [m3/s], 2.69609E-004
 Component Sizing Information, AirTerminal:SingleDuct:VAV:Reheat, ZONE EAST PERIMETER SPACE - STORY GROUND VAV TERM, Design Size Reheat Coil Sizing Air Volume Flow Rate [m3/s], 0.46653
 Component Sizing Information, AirTerminal:SingleDuct:VAV:Reheat, ZONE EAST PERIMETER SPACE - STORY GROUND VAV TERM, Design Size Reheat Coil Sizing Inlet Air Temperature [C], 16.66667
 Component Sizing Information, AirTerminal:SingleDuct:VAV:Reheat, ZONE EAST PERIMETER SPACE - STORY GROUND VAV TERM, Design Size Reheat Coil Sizing Inlet Air Humidity Ratio [kgWater/kgDryAir], 8.00000E-003
 Component Sizing Information, Coil:Heating:Water, ZONE EAST PERIMETER SPACE - STORY GROUND RHT COIL, Design Size Design Coil Load [W], 12535.56162
 Component Sizing Information, Coil:Heating:Water, ZONE EAST PERIMETER SPACE - STORY GROUND RHT COIL, Design Size Maximum Water Flow Rate [m3/s], 2.69609E-004
 Component Sizing Information, Coil:Heating:Water, ZONE EAST PERIMETER SPACE - STORY GROUND RHT COIL, Design Size U-Factor Times Area Value [W/K], 266.61230
Water Heating Coil Capacity Information,Coil:Heating:Water,ZONE EAST PERIMETER SPACE - STORY GROUND RHT COIL,12536.79
 Component Sizing Information, AirTerminal:SingleDuct:VAV:Reheat, ZONE EAST PERIMETER SPACE - STORY MID VAV TERM, Design Size Maximum Air Flow Rate [m3/s], 1.39783
 Component Sizing Information, AirTerminal:SingleDuct:VAV:Reheat, ZONE EAST PERIMETER SPACE - STORY MID VAV TERM, Design Size Constant Minimum Air Flow Fraction, 0.00000
 Component Sizing Information, AirTerminal:SingleDuct:VAV:Reheat, ZONE EAST PERIMETER SPACE - STORY MID VAV TERM, User-Specified Constant Minimum Air Flow Fraction, 0.30000
 Component Sizing Information, AirTerminal:SingleDuct:VAV:Reheat, ZONE EAST PERIMETER SPACE - STORY MID VAV TERM, Design Size Minimum Air Flow Rate [m3/s], 0.41935
 Component Sizing Information, AirTerminal:SingleDuct:VAV:Reheat, ZONE EAST PERIMETER SPACE - STORY MID VAV TERM, Design Size Maximum Flow per Zone Floor Area during Reheat [m3/s-m2], 3.19633E-003
 Component Sizing Information, AirTerminal:SingleDuct:VAV:Reheat, ZONE EAST PERIMETER SPACE - STORY MID VAV TERM, Design Size Maximum Flow Fraction during Reheat [], 0.30000
 Component Sizing Information, AirTerminal:SingleDuct:VAV:Reheat, ZONE EAST PERIMETER SPACE - STORY MID VAV TERM, Design Size Maximum Reheat Water Flow Rate [m3/s], 2.68739E-004
 Component Sizing Information, AirTerminal:SingleDuct:VAV:Reheat, ZONE EAST PERIMETER SPACE - STORY MID VAV TERM, Design Size Reheat Coil Sizing Air Volume Flow Rate [m3/s], 0.41935
 Component Sizing Information, AirTerminal:SingleDuct:VAV:Reheat, ZONE EAST PERIMETER SPACE - STORY MID VAV TERM, Design Size Reheat Coil Sizing Inlet Air Temperature [C], 16.66667
 Component Sizing Information, AirTerminal:SingleDuct:VAV:Reheat, ZONE EAST PERIMETER SPACE - STORY MID VAV TERM, Design Size Reheat Coil Sizing Inlet Air Humidity Ratio [kgWater/kgDryAir], 8.00000E-003
 Component Sizing Information, Coil:Heating:Water, ZONE EAST PERIMETER SPACE - STORY MID RHT COIL, Design Size Design Coil Load [W], 12495.07405
 Component Sizing Information, Coil:Heating:Water, ZONE EAST PERIMETER SPACE - STORY MID RHT COIL, Design Size Maximum Water Flow Rate [m3/s], 2.68739E-004
 Component Sizing Information, Coil:Heating:Water, ZONE EAST PERIMETER SPACE - STORY MID RHT COIL, Design Size U-Factor Times Area Value [W/K], 272.65507
Water Heating Coil Capacity Information,Coil:Heating:Water,ZONE EAST PERIMETER SPACE - STORY MID RHT COIL,12494.76
 Component Sizing Information, AirTerminal:SingleDuct:VAV:Reheat, ZONE EAST PERIMETER SPACE - STORY TOP VAV TERM, Design Size Maximum Air Flow Rate [m3/s], 1.55714
 Component Sizing Information, AirTerminal:SingleDuct:VAV:Reheat, ZONE EAST PERIMETER SPACE - STORY TOP VAV TERM, Design Size Constant Minimum Air Flow Fraction, 0.00000
 Component Sizing Information, AirTerminal:SingleDuct:VAV:Reheat, ZONE EAST PERIMETER SPACE - STORY TOP VAV TERM, User-Specified Constant Minimum Air Flow Fraction, 0.30000
 Component Sizing Information, AirTerminal:SingleDuct:VAV:Reheat, ZONE EAST PERIMETER SPACE - STORY TOP VAV TERM, Design Size Minimum Air Flow Rate [m3/s], 0.46714
 Component Sizing Information, AirTerminal:SingleDuct:VAV:Reheat, ZONE EAST PERIMETER SPACE - STORY TOP VAV TERM, Design Size Maximum Flow per Zone Floor Area during Reheat [m3/s-m2], 3.56061E-003
 Component Sizing Information, AirTerminal:SingleDuct:VAV:Reheat, ZONE EAST PERIMETER SPACE - STORY TOP VAV TERM, Design Size Maximum Flow Fraction during Reheat [], 0.30000
 Component Sizing Information, AirTerminal:SingleDuct:VAV:Reheat, ZONE EAST PERIMETER SPACE - STORY TOP VAV TERM, Design Size Maximum Reheat Water Flow Rate [m3/s], 3.10714E-004
 Component Sizing Information, AirTerminal:SingleDuct:VAV:Reheat, ZONE EAST PERIMETER SPACE - STORY TOP VAV TERM, Design Size Reheat Coil Sizing Air Volume Flow Rate [m3/s], 0.46714
 Component Sizing Information, AirTerminal:SingleDuct:VAV:Reheat, ZONE EAST PERIMETER SPACE - STORY TOP VAV TERM, Design Size Reheat Coil Sizing Inlet Air Temperature [C], 16.66667
 Component Sizing Information, AirTerminal:SingleDuct:VAV:Reheat, ZONE EAST PERIMETER SPACE - STORY TOP VAV TERM, Design Size Reheat Coil Sizing Inlet Air Humidity Ratio [kgWater/kgDryAir], 8.00000E-003
 Component Sizing Information, Coil:Heating:Water, ZONE EAST PERIMETER SPACE - STORY TOP RHT COIL, Design Size Design Coil Load [W], 14446.70856
 Component Sizing Information, Coil:Heating:Water, ZONE EAST PERIMETER SPACE - STORY TOP RHT COIL, Design Size Maximum Water Flow Rate [m3/s], 3.10714E-004
 Component Sizing Information, Coil:Heating:Water, ZONE EAST PERIMETER SPACE - STORY TOP RHT COIL, Design Size U-Factor Times Area Value [W/K], 318.53570
Water Heating Coil Capacity Information,Coil:Heating:Water,ZONE EAST PERIMETER SPACE - STORY TOP RHT COIL,14446.05
 Component Sizing Information, AirTerminal:SingleDuct:VAV:Reheat, ZONE NORTH PERIMETER SPACE - STORY GROUND VAV TERM, Design Size Maximum Air Flow Rate [m3/s], 0.78803
 Component Sizing Information, AirTerminal:SingleDuct:VAV:Reheat, ZONE NORTH PERIMETER SPACE - STORY GROUND VAV TERM, Design Size Constant Minimum Air Flow Fraction, 0.00000
 Component Sizing Information, AirTerminal:SingleDuct:VAV:Reheat, ZONE NORTH PERIMETER SPACE - STORY GROUND VAV TERM, User-Specified Constant Minimum Air Flow Fraction, 0.30000
 Component Sizing Information, AirTerminal:SingleDuct:VAV:Reheat, ZONE NORTH PERIMETER SPACE - STORY GROUND VAV TERM, Design Size Minimum Air Flow Rate [m3/s], 0.23641
 Component Sizing Information, AirTerminal:SingleDuct:VAV:Reheat, ZONE NORTH PERIMETER SPACE - STORY GROUND VAV TERM, Design Size Maximum Flow per Zone Floor Area during Reheat [m3/s-m2], 1.14071E-003
 Component Sizing Information, AirTerminal:SingleDuct:VAV:Reheat, ZONE NORTH PERIMETER SPACE - STORY GROUND VAV TERM, Design Size Maximum Flow Fraction during Reheat [], 0.30000
 Component Sizing Information, AirTerminal:SingleDuct:VAV:Reheat, ZONE NORTH PERIMETER SPACE - STORY GROUND VAV TERM, Design Size Maximum Reheat Water Flow Rate [m3/s], 3.72941E-004
 Component Sizing Information, AirTerminal:SingleDuct:VAV:Reheat, ZONE NORTH PERIMETER SPACE - STORY GROUND VAV TERM, Design Size Reheat Coil Sizing Air Volume Flow Rate [m3/s], 0.40263
 Component Sizing Information, AirTerminal:SingleDuct:VAV:Reheat, ZONE NORTH PERIMETER SPACE - STORY GROUND VAV TERM, Design Size Reheat Coil Sizing Inlet Air Temperature [C], 16.66667
 Component Sizing Information, AirTerminal:SingleDuct:VAV:Reheat, ZONE NORTH PERIMETER SPACE - STORY GROUND VAV TERM, Design Size Reheat Coil Sizing Inlet Air Humidity Ratio [kgWater/kgDryAir], 8.00000E-003
 Component Sizing Information, Coil:Heating:Water, ZONE NORTH PERIMETER SPACE - STORY GROUND RHT COIL, Design Size Design Coil Load [W], 17340.01074
 Component Sizing Information, Coil:Heating:Water, ZONE NORTH PERIMETER SPACE - STORY GROUND RHT COIL, Design Size Maximum Water Flow Rate [m3/s], 3.72941E-004
 Component Sizing Information, Coil:Heating:Water, ZONE NORTH PERIMETER SPACE - STORY GROUND RHT COIL, Design Size U-Factor Times Area Value [W/K], 435.29914
Water Heating Coil Capacity Information,Coil:Heating:Water,ZONE NORTH PERIMETER SPACE - STORY GROUND RHT COIL,13948.30
 Component Sizing Information, AirTerminal:SingleDuct:VAV:Reheat, ZONE NORTH PERIMETER SPACE - STORY MID VAV TERM, Design Size Maximum Air Flow Rate [m3/s], 0.81976
 Component Sizing Information, AirTerminal:SingleDuct:VAV:Reheat, ZONE NORTH PERIMETER SPACE - STORY MID VAV TERM, Design Size Constant Minimum Air Flow Fraction, 0.00000
 Component Sizing Information, AirTerminal:SingleDuct:VAV:Reheat, ZONE NORTH PERIMETER SPACE - STORY MID VAV TERM, User-Specified Constant Minimum Air Flow Fraction, 0.30000
 Component Sizing Information, AirTerminal:SingleDuct:VAV:Reheat, ZONE NORTH PERIMETER SPACE - STORY MID VAV TERM, Design Size Minimum Air Flow Rate [m3/s], 0.24593
 Component Sizing Information, AirTerminal:SingleDuct:VAV:Reheat, ZONE NORTH PERIMETER SPACE - STORY MID VAV TERM, Design Size Maximum Flow per Zone Floor Area during Reheat [m3/s-m2], 1.18664E-003
 Component Sizing Information, AirTerminal:SingleDuct:VAV:Reheat, ZONE NORTH PERIMETER SPACE - STORY MID VAV TERM, Design Size Maximum Flow Fraction during Reheat [], 0.30000
 Component Sizing Information, AirTerminal:SingleDuct:VAV:Reheat, ZONE NORTH PERIMETER SPACE - STORY MID VAV TERM, Design Size Maximum Reheat Water Flow Rate [m3/s], 3.80623E-004
 Component Sizing Information, AirTerminal:SingleDuct:VAV:Reheat, ZONE NORTH PERIMETER SPACE - STORY MID VAV TERM, Design Size Reheat Coil Sizing Air Volume Flow Rate [m3/s], 0.41118
 Component Sizing Information, AirTerminal:SingleDuct:VAV:Reheat, ZONE NORTH PERIMETER SPACE - STORY MID VAV TERM, Design Size Reheat Coil Sizing Inlet Air Temperature [C], 16.66667
 Component Sizing Information, AirTerminal:SingleDuct:VAV:Reheat, ZONE NORTH PERIMETER SPACE - STORY MID VAV TERM, Design Size Reheat Coil Sizing Inlet Air Humidity Ratio [kgWater/kgDryAir], 8.00000E-003
 Component Sizing Information, Coil:Heating:Water, ZONE NORTH PERIMETER SPACE - STORY MID RHT COIL, Design Size Design Coil Load [W], 17697.14186
 Component Sizing Information, Coil:Heating:Water, ZONE NORTH PERIMETER SPACE - STORY MID RHT COIL, Design Size Maximum Water Flow Rate [m3/s], 3.80623E-004
 Component Sizing Information, Coil:Heating:Water, ZONE NORTH PERIMETER SPACE - STORY MID RHT COIL, Design Size U-Factor Times Area Value [W/K], 444.11714
Water Heating Coil Capacity Information,Coil:Heating:Water,ZONE NORTH PERIMETER SPACE - STORY MID RHT COIL,14371.36
 Component Sizing Information, AirTerminal:SingleDuct:VAV:Reheat, ZONE NORTH PERIMETER SPACE - STORY TOP VAV TERM, Design Size Maximum Air Flow Rate [m3/s], 0.76569
 Component Sizing Information, AirTerminal:SingleDuct:VAV:Reheat, ZONE NORTH PERIMETER SPACE - STORY TOP VAV TERM, Design Size Constant Minimum Air Flow Fraction, 0.00000
 Component Sizing Information, AirTerminal:SingleDuct:VAV:Reheat, ZONE NORTH PERIMETER SPACE - STORY TOP VAV TERM, User-Specified Constant Minimum Air Flow Fraction, 0.30000
 Component Sizing Information, AirTerminal:SingleDuct:VAV:Reheat, ZONE NORTH PERIMETER SPACE - STORY TOP VAV TERM, Design Size Minimum Air Flow Rate [m3/s], 0.22971
 Component Sizing Information, AirTerminal:SingleDuct:VAV:Reheat, ZONE NORTH PERIMETER SPACE - STORY TOP VAV TERM, Design Size Maximum Flow per Zone Floor Area during Reheat [m3/s-m2], 1.10837E-003
 Component Sizing Information, AirTerminal:SingleDuct:VAV:Reheat, ZONE NORTH PERIMETER SPACE - STORY TOP VAV TERM, Design Size Maximum Flow Fraction during Reheat [], 0.30000
 Component Sizing Information, AirTerminal:SingleDuct:VAV:Reheat, ZONE NORTH PERIMETER SPACE - STORY TOP VAV TERM, Design Size Maximum Reheat Water Flow Rate [m3/s], 4.42667E-004
 Component Sizing Information, AirTerminal:SingleDuct:VAV:Reheat, ZONE NORTH PERIMETER SPACE - STORY TOP VAV TERM, Design Size Reheat Coil Sizing Air Volume Flow Rate [m3/s], 0.48015
 Component Sizing Information, AirTerminal:SingleDuct:VAV:Reheat, ZONE NORTH PERIMETER SPACE - STORY TOP VAV TERM, Design Size Reheat Coil Sizing Inlet Air Temperature [C], 16.66667
 Component Sizing Information, AirTerminal:SingleDuct:VAV:Reheat, ZONE NORTH PERIMETER SPACE - STORY TOP VAV TERM, Design Size Reheat Coil Sizing Inlet Air Humidity Ratio [kgWater/kgDryAir], 8.00000E-003
 Component Sizing Information, Coil:Heating:Water, ZONE NORTH PERIMETER SPACE - STORY TOP RHT COIL, Design Size Design Coil Load [W], 20581.92032
 Component Sizing Information, Coil:Heating:Water, ZONE NORTH PERIMETER SPACE - STORY TOP RHT COIL, Design Size Maximum Water Flow Rate [m3/s], 4.42667E-004
 Component Sizing Information, Coil:Heating:Water, ZONE NORTH PERIMETER SPACE - STORY TOP RHT COIL, Design Size U-Factor Times Area Value [W/K], 515.41025
Water Heating Coil Capacity Information,Coil:Heating:Water,ZONE NORTH PERIMETER SPACE - STORY TOP RHT COIL,14814.75
 Component Sizing Information, AirTerminal:SingleDuct:VAV:Reheat, ZONE SOUTH PERIMETER SPACE - STORY GROUND VAV TERM, Design Size Maximum Air Flow Rate [m3/s], 1.69900
 Component Sizing Information, AirTerminal:SingleDuct:VAV:Reheat, ZONE SOUTH PERIMETER SPACE - STORY GROUND VAV TERM, Design Size Constant Minimum Air Flow Fraction, 0.00000
 Component Sizing Information, AirTerminal:SingleDuct:VAV:Reheat, ZONE SOUTH PERIMETER SPACE - STORY GROUND VAV TERM, User-Specified Constant Minimum Air Flow Fraction, 0.30000
 Component Sizing Information, AirTerminal:SingleDuct:VAV:Reheat, ZONE SOUTH PERIMETER SPACE - STORY GROUND VAV TERM, Design Size Minimum Air Flow Rate [m3/s], 0.50970
 Component Sizing Information, AirTerminal:SingleDuct:VAV:Reheat, ZONE SOUTH PERIMETER SPACE - STORY GROUND VAV TERM, Design Size Maximum Flow per Zone Floor Area during Reheat [m3/s-m2], 2.45939E-003
 Component Sizing Information, AirTerminal:SingleDuct:VAV:Reheat, ZONE SOUTH PERIMETER SPACE - STORY GROUND VAV TERM, Design Size Maximum Flow Fraction during Reheat [], 0.30000
 Component Sizing Information, AirTerminal:SingleDuct:VAV:Reheat, ZONE SOUTH PERIMETER SPACE - STORY GROUND VAV TERM, Design Size Maximum Reheat Water Flow Rate [m3/s], 3.86260E-004
 Component Sizing Information, AirTerminal:SingleDuct:VAV:Reheat, ZONE SOUTH PERIMETER SPACE - STORY GROUND VAV TERM, Design Size Reheat Coil Sizing Air Volume Flow Rate [m3/s], 0.50970
 Component Sizing Information, AirTerminal:SingleDuct:VAV:Reheat, ZONE SOUTH PERIMETER SPACE - STORY GROUND VAV TERM, Design Size Reheat Coil Sizing Inlet Air Temperature [C], 16.66667
 Component Sizing Information, AirTerminal:SingleDuct:VAV:Reheat, ZONE SOUTH PERIMETER SPACE - STORY GROUND VAV TERM, Design Size Reheat Coil Sizing Inlet Air Humidity Ratio [kgWater/kgDryAir], 8.00000E-003
 Component Sizing Information, Coil:Heating:Water, ZONE SOUTH PERIMETER SPACE - STORY GROUND RHT COIL, Design Size Design Coil Load [W], 17959.25252
 Component Sizing Information, Coil:Heating:Water, ZONE SOUTH PERIMETER SPACE - STORY GROUND RHT COIL, Design Size Maximum Water Flow Rate [m3/s], 3.86260E-004
 Component Sizing Information, Coil:Heating:Water, ZONE SOUTH PERIMETER SPACE - STORY GROUND RHT COIL, Design Size U-Factor Times Area Value [W/K], 412.98531
Water Heating Coil Capacity Information,Coil:Heating:Water,ZONE SOUTH PERIMETER SPACE - STORY GROUND RHT COIL,17955.89
 Component Sizing Information, AirTerminal:SingleDuct:VAV:Reheat, ZONE SOUTH PERIMETER SPACE - STORY MID VAV TERM, Design Size Maximum Air Flow Rate [m3/s], 1.57420
 Component Sizing Information, AirTerminal:SingleDuct:VAV:Reheat, ZONE SOUTH PERIMETER SPACE - STORY MID VAV TERM, Design Size Constant Minimum Air Flow Fraction, 0.00000
 Component Sizing Information, AirTerminal:SingleDuct:VAV:Reheat, ZONE SOUTH PERIMETER SPACE - STORY MID VAV TERM, User-Specified Constant Minimum Air Flow Fraction, 0.30000
 Component Sizing Information, AirTerminal:SingleDuct:VAV:Reheat, ZONE SOUTH PERIMETER SPACE - STORY MID VAV TERM, Design Size Minimum Air Flow Rate [m3/s], 0.47226
 Component Sizing Information, AirTerminal:SingleDuct:VAV:Reheat, ZONE SOUTH PERIMETER SPACE - STORY MID VAV TERM, Design Size Maximum Flow per Zone Floor Area during Reheat [m3/s-m2], 2.27873E-003
 Component Sizing Information, AirTerminal:SingleDuct:VAV:Reheat, ZONE SOUTH PERIMETER SPACE - STORY MID VAV TERM, Design Size Maximum Flow Fraction during Reheat [], 0.30000
 Component Sizing Information, AirTerminal:SingleDuct:VAV:Reheat, ZONE SOUTH PERIMETER SPACE - STORY MID VAV TERM, Design Size Maximum Reheat Water Flow Rate [m3/s], 3.87878E-004
 Component Sizing Information, AirTerminal:SingleDuct:VAV:Reheat, ZONE SOUTH PERIMETER SPACE - STORY MID VAV TERM, Design Size Reheat Coil Sizing Air Volume Flow Rate [m3/s], 0.47226
 Component Sizing Information, AirTerminal:SingleDuct:VAV:Reheat, ZONE SOUTH PERIMETER SPACE - STORY MID VAV TERM, Design Size Reheat Coil Sizing Inlet Air Temperature [C], 16.66667
 Component Sizing Information, AirTerminal:SingleDuct:VAV:Reheat, ZONE SOUTH PERIMETER SPACE - STORY MID VAV TERM, Design Size Reheat Coil Sizing Inlet Air Humidity Ratio [kgWater/kgDryAir], 8.00000E-003
 Component Sizing Information, Coil:Heating:Water, ZONE SOUTH PERIMETER SPACE - STORY MID RHT COIL, Design Size Design Coil Load [W], 18034.50589
 Component Sizing Information, Coil:Heating:Water, ZONE SOUTH PERIMETER SPACE - STORY MID RHT COIL, Design Size Maximum Water Flow Rate [m3/s], 3.87878E-004
 Component Sizing Information, Coil:Heating:Water, ZONE SOUTH PERIMETER SPACE - STORY MID RHT COIL, Design Size U-Factor Times Area Value [W/K], 427.86209
Water Heating Coil Capacity Information,Coil:Heating:Water,ZONE SOUTH PERIMETER SPACE - STORY MID RHT COIL,18029.00
 Component Sizing Information, AirTerminal:SingleDuct:VAV:Reheat, ZONE SOUTH PERIMETER SPACE - STORY TOP VAV TERM, Design Size Maximum Air Flow Rate [m3/s], 1.78183
 Component Sizing Information, AirTerminal:SingleDuct:VAV:Reheat, ZONE SOUTH PERIMETER SPACE - STORY TOP VAV TERM, Design Size Constant Minimum Air Flow Fraction, 0.00000
 Component Sizing Information, AirTerminal:SingleDuct:VAV:Reheat, ZONE SOUTH PERIMETER SPACE - STORY TOP VAV TERM, User-Specified Constant Minimum Air Flow Fraction, 0.30000
 Component Sizing Information, AirTerminal:SingleDuct:VAV:Reheat, ZONE SOUTH PERIMETER SPACE - STORY TOP VAV TERM, Design Size Minimum Air Flow Rate [m3/s], 0.53455
 Component Sizing Information, AirTerminal:SingleDuct:VAV:Reheat, ZONE SOUTH PERIMETER SPACE - STORY TOP VAV TERM, Design Size Maximum Flow per Zone Floor Area during Reheat [m3/s-m2], 2.57928E-003
 Component Sizing Information, AirTerminal:SingleDuct:VAV:Reheat, ZONE SOUTH PERIMETER SPACE - STORY TOP VAV TERM, Design Size Maximum Flow Fraction during Reheat [], 0.30000
 Component Sizing Information, AirTerminal:SingleDuct:VAV:Reheat, ZONE SOUTH PERIMETER SPACE - STORY TOP VAV TERM, Design Size Maximum Reheat Water Flow Rate [m3/s], 4.48763E-004
 Component Sizing Information, AirTerminal:SingleDuct:VAV:Reheat, ZONE SOUTH PERIMETER SPACE - STORY TOP VAV TERM, Design Size Reheat Coil Sizing Air Volume Flow Rate [m3/s], 0.53455
 Component Sizing Information, AirTerminal:SingleDuct:VAV:Reheat, ZONE SOUTH PERIMETER SPACE - STORY TOP VAV TERM, Design Size Reheat Coil Sizing Inlet Air Temperature [C], 16.66667
 Component Sizing Information, AirTerminal:SingleDuct:VAV:Reheat, ZONE SOUTH PERIMETER SPACE - STORY TOP VAV TERM, Design Size Reheat Coil Sizing Inlet Air Humidity Ratio [kgWater/kgDryAir], 8.00000E-003
 Component Sizing Information, Coil:Heating:Water, ZONE SOUTH PERIMETER SPACE - STORY TOP RHT COIL, Design Size Design Coil Load [W], 20865.32866
 Component Sizing Information, Coil:Heating:Water, ZONE SOUTH PERIMETER SPACE - STORY TOP RHT COIL, Design Size Maximum Water Flow Rate [m3/s], 4.48763E-004
 Component Sizing Information, Coil:Heating:Water, ZONE SOUTH PERIMETER SPACE - STORY TOP RHT COIL, Design Size U-Factor Times Area Value [W/K], 499.68373
Water Heating Coil Capacity Information,Coil:Heating:Water,ZONE SOUTH PERIMETER SPACE - STORY TOP RHT COIL,20858.72
 Component Sizing Information, AirTerminal:SingleDuct:VAV:Reheat, ZONE WEST PERIMETER SPACE - STORY GROUND VAV TERM, Design Size Maximum Air Flow Rate [m3/s], 1.67951
 Component Sizing Information, AirTerminal:SingleDuct:VAV:Reheat, ZONE WEST PERIMETER SPACE - STORY GROUND VAV TERM, Design Size Constant Minimum Air Flow Fraction, 0.00000
 Component Sizing Information, AirTerminal:SingleDuct:VAV:Reheat, ZONE WEST PERIMETER SPACE - STORY GROUND VAV TERM, User-Specified Constant Minimum Air Flow Fraction, 0.30000
[...]
 Component Sizing Information, AirTerminal:SingleDuct:VAV:Reheat, ZONE WEST PERIMETER SPACE - STORY MID VAV TERM, Design Size Minimum Air Flow Rate [m3/s], 0.45364
 Component Sizing Information, AirTerminal:SingleDuct:VAV:Reheat, ZONE WEST PERIMETER SPACE - STORY MID VAV TERM, Design Size Maximum Flow per Zone Floor Area during Reheat [m3/s-m2], 3.45769E-003
 Component Sizing Information, AirTerminal:SingleDuct:VAV:Reheat, ZONE WEST PERIMETER SPACE - STORY MID VAV TERM, Design Size Maximum Flow Fraction during Reheat [], 0.30000
 Component Sizing Information, AirTerminal:SingleDuct:VAV:Reheat, ZONE WEST PERIMETER SPACE - STORY MID VAV TERM, Design Size Maximum Reheat Water Flow Rate [m3/s], 2.72810E-004
 Component Sizing Information, AirTerminal:SingleDuct:VAV:Reheat, ZONE WEST PERIMETER SPACE - STORY MID VAV TERM, Design Size Reheat Coil Sizing Air Volume Flow Rate [m3/s], 0.45364
 Component Sizing Information, AirTerminal:SingleDuct:VAV:Reheat, ZONE WEST PERIMETER SPACE - STORY MID VAV TERM, Design Size Reheat Coil Sizing Inlet Air Temperature [C], 16.66667
 Component Sizing Information, AirTerminal:SingleDuct:VAV:Reheat, ZONE WEST PERIMETER SPACE - STORY MID VAV TERM, Design Size Reheat Coil Sizing Inlet Air Humidity Ratio [kgWater/kgDryAir], 8.00000E-003
 Component Sizing Information, Coil:Heating:Water, ZONE WEST PERIMETER SPACE - STORY MID RHT COIL, Design Size Design Coil Load [W], 12684.38658
 Component Sizing Information, Coil:Heating:Water, ZONE WEST PERIMETER SPACE - STORY MID RHT COIL, Design Size Maximum Water Flow Rate [m3/s], 2.72810E-004
 Component Sizing Information, Coil:Heating:Water, ZONE WEST PERIMETER SPACE - STORY MID RHT COIL, Design Size U-Factor Times Area Value [W/K], 272.33066
Water Heating Coil Capacity Information,Coil:Heating:Water,ZONE WEST PERIMETER SPACE - STORY MID RHT COIL,12685.49
 Component Sizing Information, AirTerminal:SingleDuct:VAV:Reheat, ZONE WEST PERIMETER SPACE - STORY TOP VAV TERM, Design Size Maximum Air Flow Rate [m3/s], 1.67814
 Component Sizing Information, AirTerminal:SingleDuct:VAV:Reheat, ZONE WEST PERIMETER SPACE - STORY TOP VAV TERM, Design Size Constant Minimum Air Flow Fraction, 0.00000
 Component Sizing Information, AirTerminal:SingleDuct:VAV:Reheat, ZONE WEST PERIMETER SPACE - STORY TOP VAV TERM, User-Specified Constant Minimum Air Flow Fraction, 0.30000
 Component Sizing Information, AirTerminal:SingleDuct:VAV:Reheat, ZONE WEST PERIMETER SPACE - STORY TOP VAV TERM, Design Size Minimum Air Flow Rate [m3/s], 0.50344
 Component Sizing Information, AirTerminal:SingleDuct:VAV:Reheat, ZONE WEST PERIMETER SPACE - STORY TOP VAV TERM, Design Size Maximum Flow per Zone Floor Area during Reheat [m3/s-m2], 3.83730E-003
 Component Sizing Information, AirTerminal:SingleDuct:VAV:Reheat, ZONE WEST PERIMETER SPACE - STORY TOP VAV TERM, Design Size Maximum Flow Fraction during Reheat [], 0.30000
 Component Sizing Information, AirTerminal:SingleDuct:VAV:Reheat, ZONE WEST PERIMETER SPACE - STORY TOP VAV TERM, Design Size Maximum Reheat Water Flow Rate [m3/s], 3.14784E-004
 Component Sizing Information, AirTerminal:SingleDuct:VAV:Reheat, ZONE WEST PERIMETER SPACE - STORY TOP VAV TERM, Design Size Reheat Coil Sizing Air Volume Flow Rate [m3/s], 0.50344
 Component Sizing Information, AirTerminal:SingleDuct:VAV:Reheat, ZONE WEST PERIMETER SPACE - STORY TOP VAV TERM, Design Size Reheat Coil Sizing Inlet Air Temperature [C], 16.66667
 Component Sizing Information, AirTerminal:SingleDuct:VAV:Reheat, ZONE WEST PERIMETER SPACE - STORY TOP VAV TERM, Design Size Reheat Coil Sizing Inlet Air Humidity Ratio [kgWater/kgDryAir], 8.00000E-003
 Component Sizing Information, Coil:Heating:Water, ZONE WEST PERIMETER SPACE - STORY TOP RHT COIL, Design Size Design Coil Load [W], 14635.95000
 Component Sizing Information, Coil:Heating:Water, ZONE WEST PERIMETER SPACE - STORY TOP RHT COIL, Design Size Maximum Water Flow Rate [m3/s], 3.14784E-004
 Component Sizing Information, Coil:Heating:Water, ZONE WEST PERIMETER SPACE - STORY TOP RHT COIL, Design Size U-Factor Times Area Value [W/K], 317.29273
Water Heating Coil Capacity Information,Coil:Heating:Water,ZONE WEST PERIMETER SPACE - STORY TOP RHT COIL,14635.80
 Component Sizing Information, AirLoopHVAC, 5 ZONE PVAV, Design Supply Air Flow Rate [m3/s], 7.40214
 Component Sizing Information, AirLoopHVAC, 5 ZONE PVAV 1, Design Supply Air Flow Rate [m3/s], 7.43292
 Component Sizing Information, AirLoopHVAC, 5 ZONE PVAV 2, Design Supply Air Flow Rate [m3/s], 7.93297
!<Controller:MechanicalVentilation>,Name,Availability Schedule Name,Demand Controlled Ventilation {Yes/No},System Outdoor Air Method,Zone Maximum Outdoor Air Fraction,Number of Zones,Zone Name,DSOA Name,DSZAD Name
 Controller:MechanicalVentilation,5 ZONE PVAV VENTILATION CONTROLLER,ALWAYS ON DISCRETE,No,ZoneSum,1.00,5,ZONE CORE SPACE - STORY GROUND,OFFICE WHOLEBUILDING - MD OFFICE VENTILATION,ZONE CORE SPACE - STORY GROUND DESIGN SPEC ZONE AIR DIST,ZONE EAST PERIMETER SPACE - STORY GROUND,OFFICE WHOLEBUILDING - MD OFFICE VENTILATION,ZONE EAST PERIMETER SPACE - STORY GROUND DESIGN SPEC ZONE AIR DIST,ZONE NORTH PERIMETER SPACE - STORY GROUND,OFFICE WHOLEBUILDING - MD OFFICE VENTILATION,ZONE NORTH PERIMETER SPACE - STORY GROUND DESIGN SPEC ZONE AIR DIST,ZONE SOUTH PERIMETER SPACE - STORY GROUND,OFFICE WHOLEBUILDING - MD OFFICE VENTILATION,ZONE SOUTH PERIMETER SPACE - STORY GROUND DESIGN SPEC ZONE AIR DIST,ZONE WEST PERIMETER SPACE - STORY GROUND,OFFICE WHOLEBUILDING - MD OFFICE VENTILATION,ZONE WEST PERIMETER SPACE - STORY GROUND DESIGN SPEC ZONE AIR DIST
 Controller:MechanicalVentilation,5 ZONE PVAV 1 VENTILATION CONTROLLER,ALWAYS ON DISCRETE,No,ZoneSum,1.00,5,ZONE CORE SPACE - STORY MID,OFFICE WHOLEBUILDING - MD OFFICE VENTILATION,ZONE CORE SPACE - STORY MID DESIGN SPEC ZONE AIR DIST,ZONE EAST PERIMETER SPACE - STORY MID,OFFICE WHOLEBUILDING - MD OFFICE VENTILATION,ZONE EAST PERIMETER SPACE - STORY MID DESIGN SPEC ZONE AIR DIST,ZONE NORTH PERIMETER SPACE - STORY MID,OFFICE WHOLEBUILDING - MD OFFICE VENTILATION,ZONE NORTH PERIMETER SPACE - STORY MID DESIGN SPEC ZONE AIR DIST,ZONE SOUTH PERIMETER SPACE - STORY MID,OFFICE WHOLEBUILDING - MD OFFICE VENTILATION,ZONE SOUTH PERIMETER SPACE - STORY MID DESIGN SPEC ZONE AIR DIST,ZONE WEST PERIMETER SPACE - STORY MID,OFFICE WHOLEBUILDING - MD OFFICE VENTILATION,ZONE WEST PERIMETER SPACE - STORY MID DESIGN SPEC ZONE AIR DIST
 Controller:MechanicalVentilation,5 ZONE PVAV 2 VENTILATION CONTROLLER,ALWAYS ON DISCRETE,No,ZoneSum,1.00,5,ZONE CORE SPACE - STORY TOP,OFFICE WHOLEBUILDING - MD OFFICE VENTILATION,ZONE CORE SPACE - STORY TOP DESIGN SPEC ZONE AIR DIST,ZONE EAST PERIMETER SPACE - STORY TOP,OFFICE WHOLEBUILDING - MD OFFICE VENTILATION,ZONE EAST PERIMETER SPACE - STORY TOP DESIGN SPEC ZONE AIR DIST,ZONE NORTH PERIMETER SPACE - STORY TOP,OFFICE WHOLEBUILDING - MD OFFICE VENTILATION,ZONE NORTH PERIMETER SPACE - STORY TOP DESIGN SPEC ZONE AIR DIST,ZONE SOUTH PERIMETER SPACE - STORY TOP,OFFICE WHOLEBUILDING - MD OFFICE VENTILATION,ZONE SOUTH PERIMETER SPACE - STORY TOP DESIGN SPEC ZONE AIR DIST,ZONE WEST PERIMETER SPACE - STORY TOP,OFFICE WHOLEBUILDING - MD OFFICE VENTILATION,ZONE WEST PERIMETER SPACE - STORY TOP DESIGN SPEC ZONE AIR DIST
 Component Sizing Information, Controller:OutdoorAir, CONTROLLER OUTDOOR AIR 1, Maximum Outdoor Air Flow Rate [m3/s], 7.40214
 Component Sizing Information, Coil:Cooling:DX:TwoSpeed, 5 ZONE PVAV CLG COIL 487KBTU/HR 6.8EER, Design Size High Speed Rated Air Flow Rate [m3/s], 7.40214
 Component Sizing Information, Coil:Cooling:DX:TwoSpeed, 5 ZONE PVAV CLG COIL 487KBTU/HR 6.8EER, Design Size High Speed Gross Rated Total Cooling Capacity [W], 124431.44466
 Component Sizing Information, Coil:Cooling:DX:TwoSpeed, 5 ZONE PVAV CLG COIL 487KBTU/HR 6.8EER, Design Size High Speed Rated Sensible Heat Ratio, 0.79304
 Component Sizing Information, Coil:Cooling:DX:TwoSpeed, 5 ZONE PVAV CLG COIL 487KBTU/HR 6.8EER, Design Size Low Speed Rated Air Flow Rate [m3/s], 2.46713
 Component Sizing Information, Coil:Cooling:DX:TwoSpeed, 5 ZONE PVAV CLG COIL 487KBTU/HR 6.8EER, Design Size Low Speed Gross Rated Total Cooling Capacity [W], 41473.00050
 Component Sizing Information, Coil:Cooling:DX:TwoSpeed, 5 ZONE PVAV CLG COIL 487KBTU/HR 6.8EER, Design Size Low Speed Gross Rated Sensible Heat Ratio, 0.79304
 Component Sizing Information, Coil:Cooling:DX:TwoSpeed, 5 ZONE PVAV CLG COIL 487KBTU/HR 6.8EER, User-Specified Low Speed Gross Rated Sensible Heat Ratio, 0.69000
! <VAV DX Cooling Coil Standard Rating Information>, DX Coil Type, DX Coil Name, Fan Type, Fan Name, Standard Net Cooling Capacity {W}, Standard Net Cooling Capacity {Btu/h}, IEER {Btu/W-h}, COP 100% Capacity {W/W}, COP 75% Capacity {W/W}, COP 50% Capacity {W/W}, COP 25% Capacity {W/W}, EER 100% Capacity {Btu/W-h}, EER 75% Capacity {Btu/W-h}, EER 50% Capacity {Btu/W-h}, EER 25% Capacity {Btu/W-h}, Supply Air Flow 100% {kg/s}, Supply Air Flow 75% {kg/s},Supply Air Flow 50% {kg/s},Supply Air Flow 25% {kg/s}
 VAV DX Cooling Coil Standard Rating Information, Coil:Cooling:DX:TwoSpeed,5 ZONE PVAV CLG COIL 487KBTU/HR 6.8EER,N/A,N/A,118509.29,404370.48,8.29,2.18,2.36,2.53,2.64,7.44,8.05,8.62,9.01,8.5595,6.2912,4.0709,1.8192,
 Component Sizing Information, Coil:Heating:Water, 5 ZONE PVAV MAIN HTG COIL, Design Size Design Coil Load [W], 34597.88539
 Component Sizing Information, Coil:Heating:Water, 5 ZONE PVAV MAIN HTG COIL, Design Size Maximum Water Flow Rate [m3/s], 7.44116E-004
 Component Sizing Information, Coil:Heating:Water, 5 ZONE PVAV MAIN HTG COIL, Design Size U-Factor Times Area Value [W/K], 543.52424
Water Heating Coil Capacity Information,Coil:Heating:Water,5 ZONE PVAV MAIN HTG COIL,28941.20
 Component Sizing Information, Fan:VariableVolume, 5 ZONE PVAV FAN, Design Size Maximum Flow Rate [m3/s], 7.40214
 Component Sizing Information, Controller:WaterCoil, CONTROLLER WATER COIL 1, Maximum Actuated Flow [m3/s], 7.44116E-004
 Component Sizing Information, Controller:OutdoorAir, CONTROLLER OUTDOOR AIR 2, Maximum Outdoor Air Flow Rate [m3/s], 7.43292
 Component Sizing Information, Coil:Cooling:DX:TwoSpeed, 5 ZONE PVAV 1 CLG COIL 488KBTU/HR 6.8EER, Design Size High Speed Rated Air Flow Rate [m3/s], 7.43292
 Component Sizing Information, Coil:Cooling:DX:TwoSpeed, 5 ZONE PVAV 1 CLG COIL 488KBTU/HR 6.8EER, Design Size High Speed Gross Rated Total Cooling Capacity [W], 124877.56510
 Component Sizing Information, Coil:Cooling:DX:TwoSpeed, 5 ZONE PVAV 1 CLG COIL 488KBTU/HR 6.8EER, Design Size High Speed Rated Sensible Heat Ratio, 0.79325
 Component Sizing Information, Coil:Cooling:DX:TwoSpeed, 5 ZONE PVAV 1 CLG COIL 488KBTU/HR 6.8EER, Design Size Low Speed Rated Air Flow Rate [m3/s], 2.47739
 Component Sizing Information, Coil:Cooling:DX:TwoSpeed, 5 ZONE PVAV 1 CLG COIL 488KBTU/HR 6.8EER, Design Size Low Speed Gross Rated Total Cooling Capacity [W], 41621.69245
 Component Sizing Information, Coil:Cooling:DX:TwoSpeed, 5 ZONE PVAV 1 CLG COIL 488KBTU/HR 6.8EER, Design Size Low Speed Gross Rated Sensible Heat Ratio, 0.79325
 Component Sizing Information, Coil:Cooling:DX:TwoSpeed, 5 ZONE PVAV 1 CLG COIL 488KBTU/HR 6.8EER, User-Specified Low Speed Gross Rated Sensible Heat Ratio, 0.69000
 VAV DX Cooling Coil Standard Rating Information, Coil:Cooling:DX:TwoSpeed,5 ZONE PVAV 1 CLG COIL 488KBTU/HR 6.8EER,N/A,N/A,118930.89,405809.05,8.30,2.18,2.36,2.53,2.64,7.44,8.05,8.63,9.01,8.5951,6.3170,4.0872,1.8263,
 Component Sizing Information, Coil:Heating:Water, 5 ZONE PVAV 1 MAIN HTG COIL, Design Size Design Coil Load [W], 34557.96788
 Component Sizing Information, Coil:Heating:Water, 5 ZONE PVAV 1 MAIN HTG COIL, Design Size Maximum Water Flow Rate [m3/s], 7.43258E-004
 Component Sizing Information, Coil:Heating:Water, 5 ZONE PVAV 1 MAIN HTG COIL, Design Size U-Factor Times Area Value [W/K], 543.24961
Water Heating Coil Capacity Information,Coil:Heating:Water,5 ZONE PVAV 1 MAIN HTG COIL,28932.87
 Component Sizing Information, Fan:VariableVolume, 5 ZONE PVAV 1 FAN, Design Size Maximum Flow Rate [m3/s], 7.43292
 Component Sizing Information, Controller:WaterCoil, CONTROLLER WATER COIL 7, Maximum Actuated Flow [m3/s], 7.43258E-004
 Component Sizing Information, Controller:OutdoorAir, CONTROLLER OUTDOOR AIR 3, Maximum Outdoor Air Flow Rate [m3/s], 7.93297
 Component Sizing Information, Coil:Cooling:DX:TwoSpeed, 5 ZONE PVAV 2 CLG COIL 517KBTU/HR 6.8EER, Design Size High Speed Rated Air Flow Rate [m3/s], 7.93297
 Component Sizing Information, Coil:Cooling:DX:TwoSpeed, 5 ZONE PVAV 2 CLG COIL 517KBTU/HR 6.8EER, Design Size High Speed Gross Rated Total Cooling Capacity [W], 132255.56991
 Component Sizing Information, Coil:Cooling:DX:TwoSpeed, 5 ZONE PVAV 2 CLG COIL 517KBTU/HR 6.8EER, Design Size High Speed Rated Sensible Heat Ratio, 0.79605
 Component Sizing Information, Coil:Cooling:DX:TwoSpeed, 5 ZONE PVAV 2 CLG COIL 517KBTU/HR 6.8EER, Design Size Low Speed Rated Air Flow Rate [m3/s], 2.64406
 Component Sizing Information, Coil:Cooling:DX:TwoSpeed, 5 ZONE PVAV 2 CLG COIL 517KBTU/HR 6.8EER, Design Size Low Speed Gross Rated Total Cooling Capacity [W], 44080.78145
 Component Sizing Information, Coil:Cooling:DX:TwoSpeed, 5 ZONE PVAV 2 CLG COIL 517KBTU/HR 6.8EER, Design Size Low Speed Gross Rated Sensible Heat Ratio, 0.79605
 Component Sizing Information, Coil:Cooling:DX:TwoSpeed, 5 ZONE PVAV 2 CLG COIL 517KBTU/HR 6.8EER, User-Specified Low Speed Gross Rated Sensible Heat Ratio, 0.69000
 VAV DX Cooling Coil Standard Rating Information, Coil:Cooling:DX:TwoSpeed,5 ZONE PVAV 2 CLG COIL 517KBTU/HR 6.8EER,N/A,N/A,125910.46,429624.34,8.33,2.19,2.37,2.54,2.65,7.47,8.08,8.67,9.05,9.1733,6.7326,4.3373,1.9418,
 Component Sizing Information, Coil:Heating:Water, 5 ZONE PVAV 2 MAIN HTG COIL, Design Size Design Coil Load [W], 33645.94110
 Component Sizing Information, Coil:Heating:Water, 5 ZONE PVAV 2 MAIN HTG COIL, Design Size Maximum Water Flow Rate [m3/s], 7.23642E-004
 Component Sizing Information, Coil:Heating:Water, 5 ZONE PVAV 2 MAIN HTG COIL, Design Size U-Factor Times Area Value [W/K], 534.73200
Water Heating Coil Capacity Information,Coil:Heating:Water,5 ZONE PVAV 2 MAIN HTG COIL,28578.23
 Component Sizing Information, Fan:VariableVolume, 5 ZONE PVAV 2 FAN, Design Size Maximum Flow Rate [m3/s], 7.93297
 Component Sizing Information, Controller:WaterCoil, CONTROLLER WATER COIL 13, Maximum Actuated Flow [m3/s], 7.23642E-004
Water Heater Information,WaterHeater:Mixed,40.0GAL GAS WATER HEATER - 31KBTU/HR 0.78 THERM EFF 0.78 THERM EFF,0.1514,8942.2,0.781,0.5642
 Component Sizing Information, PlantLoop, HOT WATER LOOP, Maximum Loop Flow Rate [m3/s], 8.17686E-003
 Component Sizing Information, PlantLoop, HOT WATER LOOP, Plant Loop Volume [m3], 0.98122
 Component Sizing Information, Pump:VariableSpeed, HOT WATER LOOP PUMP, Design Flow Rate [m3/s], 8.17686E-003
 Component Sizing Information, Pump:VariableSpeed, HOT WATER LOOP PUMP, Design Power Consumption [W], 2278.89896
 Component Sizing Information, Boiler:HotWater, HOT WATER LOOP BOILER 1115KBTU/HR 0.78 THERMAL EFF, Design Size Nominal Capacity [W], 381669.15400
 Component Sizing Information, Boiler:HotWater, HOT WATER LOOP BOILER 1115KBTU/HR 0.78 THERMAL EFF, Design Size Design Water Flow Rate [m3/s], 8.17686E-003
 Component Sizing Information, PlantLoop, OFFICE SHARED SERVICE WATER LOOP, Maximum Loop Flow Rate [m3/s], 5.36067E-005
 Component Sizing Information, PlantLoop, OFFICE SHARED SERVICE WATER LOOP, Plant Loop Volume [m3], 6.43280E-003
 Component Sizing Information, Pump:ConstantSpeed, SERVICE WATER LOOP PUMP, Design Flow Rate [m3/s], 5.36067E-005
 Component Sizing Information, Pump:ConstantSpeed, SERVICE WATER LOOP PUMP, Design Power Consumption [W], 2.49004
 Component Sizing Information, WaterHeater:Mixed, 40.0GAL GAS WATER HEATER - 31KBTU/HR 0.78 THERM EFF 0.78 THERM EFF, Use Side Design Flow Rate [m3/s], 5.36067E-005
! <Environment>,Environment Name,Environment Type, Start Date, End Date, Start DayOfWeek, Duration {#days}, Source:Start DayOfWeek,  Use Daylight Saving, Use Holidays, Apply Weekend Holiday Rule,  Use Rain Values, Use Snow Values
! <Environment:Special Days>, Special Day Name, Special Day Type, Source, Start Date, Duration {#days}
! <Environment:Daylight Saving>, Daylight Saving Indicator, Source, Start Date, End Date
! <Environment:WarmupDays>, NumberofWarmupDays
Environment,RUN PERIOD 1,WeatherFileRunPeriod,01/01,12/31,Thursday,365,Use RunPeriod Specified Day,No,No,No,Yes,Yes
Environment:Daylight Saving,No,RunPeriod Object
Environment:WarmupDays,  6
! <Tabular Report>,Style,Unit Conversion
Tabular Report,HTML,None
! <Warmup Convergence Information>,Zone Name,Environment Type/Name,Average Warmup Temperature Difference {deltaC},Std Dev Warmup Temperature Difference {deltaC},Max Temperature Pass/Fail Convergence,Min Temperature Pass/Fail Convergence,Average Warmup Load Difference {W},Std Dev Warmup Load Difference {W},Heating Load Pass/Fail Convergence,Cooling Load Pass/Fail Convergence
 Warmup Convergence Information,ZONE CORE SPACE - STORY GROUND,RunPeriod: RUN PERIOD 1,0.2225570832,0.3387703558,Pass,Pass,0.4286583922,1.3709042187,Pass,Pass
 Warmup Convergence Information,ZONE CORE SPACE - STORY MID,RunPeriod: RUN PERIOD 1,0.2254164479,0.3394120278,Pass,Pass,0.3684388656,0.9096557828,Pass,Pass
 Warmup Convergence Information,ZONE CORE SPACE - STORY TOP,RunPeriod: RUN PERIOD 1,0.2250081731,0.4017753985,Pass,Pass,0.4653378086,1.4082799873,Pass,Pass
 Warmup Convergence Information,ZONE EAST PERIMETER SPACE - STORY GROUND,RunPeriod: RUN PERIOD 1,0.2682814014,0.6127143658,Pass,Pass,0.4536265261,1.8555742297,Pass,Pass
 Warmup Convergence Information,ZONE EAST PERIMETER SPACE - STORY MID,RunPeriod: RUN PERIOD 1,0.2508187077,0.6547910820,Pass,Pass,0.7112109605,4.2330118933,Pass,Pass
 Warmup Convergence Information,ZONE EAST PERIMETER SPACE - STORY TOP,RunPeriod: RUN PERIOD 1,0.3884272827,0.7530167618,Pass,Pass,0.4088519927,0.7696529176,Pass,Pass
 Warmup Convergence Information,ZONE NORTH PERIMETER SPACE - STORY GROUND,RunPeriod: RUN PERIOD 1,0.2796108411,0.6056404117,Pass,Pass,0.3920033937,0.5726672205,Pass,Pass
 Warmup Convergence Information,ZONE NORTH PERIMETER SPACE - STORY MID,RunPeriod: RUN PERIOD 1,0.2769653785,0.6433243664,Pass,Pass,0.4330209919,0.8634968164,Pass,Pass
 Warmup Convergence Information,ZONE NORTH PERIMETER SPACE - STORY TOP,RunPeriod: RUN PERIOD 1,0.3868498999,0.7047558320,Pass,Pass,0.5980074175,1.2156179239,Pass,Pass
 Warmup Convergence Information,ZONE SOUTH PERIMETER SPACE - STORY GROUND,RunPeriod: RUN PERIOD 1,0.2932648767,0.5904636246,Pass,Pass,0.5197774018,1.3061333770,Pass,Pass
 Warmup Convergence Information,ZONE SOUTH PERIMETER SPACE - STORY MID,RunPeriod: RUN PERIOD 1,0.2822121644,0.5845798055,Pass,Pass,0.4902111865,1.1520156048,Pass,Pass
 Warmup Convergence Information,ZONE SOUTH PERIMETER SPACE - STORY TOP,RunPeriod: RUN PERIOD 1,0.3356169018,0.6789499482,Pass,Pass,0.7276809848,4.3227639122,Pass,Pass
 Warmup Convergence Information,ZONE WEST PERIMETER SPACE - STORY GROUND,RunPeriod: RUN PERIOD 1,0.2697574569,0.6017357482,Pass,Pass,0.5853149994,1.6456805252,Pass,Pass
 Warmup Convergence Information,ZONE WEST PERIMETER SPACE - STORY MID,RunPeriod: RUN PERIOD 1,0.2545590291,0.6363203359,Pass,Pass,0.4820367056,0.8240645744,Pass,Pass
 Warmup Convergence Information,ZONE WEST PERIMETER SPACE - STORY TOP,RunPeriod: RUN PERIOD 1,0.3898339216,0.7404485842,Pass,Pass,0.4190308707,0.6294638821,Pass,Pass
! <Program Control Information:Threads/Parallel Sims>, Threading Supported,Maximum Number of Threads, Env Set Threads (OMP_NUM_THREADS), EP Env Set Threads (EP_OMP_NUM_THREADS), IDF Set Threads, Number of Threads Used (Interior Radiant Exchange), Number Nominal Surfaces, Number Parallel Sims
Program Control:Threads/Parallel Sims, No,1, N/A, N/A, N/A, N/A, N/A, N/A
End of Data
